<?xml version="1.0" encoding="UTF-8"?>

<!-- generated on 2023-06-29 13:24:19 by Eclipse SUMO netedit Version 1.14.1
<configuration xmlns:xsi="http://www.w3.org/2001/XMLSchema-instance" xsi:noNamespaceSchemaLocation="http://sumo.dlr.de/xsd/netconvertConfiguration.xsd">

    <input>
        <sumo-net-file value="D:\Program%20Files%20(x86)\Eclipse\Sumo\doc\blackwallExp3\blackwallExp3.net.xml"/>
    </input>

    <output>
        <output-file value="D:\Program%20Files%20(x86)\Eclipse\Sumo\doc\blackwallExp3\blackwallExp3.net.xml"/>
        <output.street-names value="true"/>
    </output>

    <processing>
        <geometry.min-radius.fix.railways value="false"/>
        <geometry.max-grade.fix value="false"/>
        <offset.disable-normalization value="true"/>
        <lefthand value="true"/>
    </processing>

    <junctions>
        <no-turnarounds value="true"/>
        <junctions.corner-detail value="5"/>
        <junctions.limit-turn-speed value="5.5"/>
        <rectangular-lane-cut value="false"/>
    </junctions>

    <pedestrian>
        <walkingareas value="false"/>
    </pedestrian>

</configuration>
-->

<net version="1.9" junctionCornerDetail="5" lefthand="true" limitTurnSpeed="5.50" xmlns:xsi="http://www.w3.org/2001/XMLSchema-instance" xsi:noNamespaceSchemaLocation="http://sumo.dlr.de/xsd/net_file.xsd">

    <location netOffset="-706710.46,-5705654.65" convBoundary="136.48,0.00,3735.90,7418.63" origBoundary="-0.025120,51.462878,0.039555,51.533111" projParameter="+proj=utm +zone=30 +ellps=WGS84 +datum=WGS84 +units=m +no_defs"/>

    <type id="highway.bridleway" priority="1" numLanes="1" speed="2.78" allow="pedestrian" oneway="1" width="2.00"/>
    <type id="highway.bus_guideway" priority="1" numLanes="1" speed="27.78" allow="bus" oneway="1"/>
    <type id="highway.cycleway" priority="1" numLanes="1" speed="5.56" allow="bicycle" oneway="0" width="1.00"/>
    <type id="highway.footway" priority="1" numLanes="1" speed="2.78" allow="pedestrian" oneway="1" width="2.00"/>
    <type id="highway.ford" priority="1" numLanes="1" speed="2.78" allow="army" oneway="0"/>
    <type id="highway.living_street" priority="2" numLanes="1" speed="2.78" disallow="tram rail_urban rail rail_electric rail_fast ship" oneway="0"/>
    <type id="highway.motorway" priority="14" numLanes="2" speed="39.44" allow="private emergency authority army vip passenger hov taxi bus coach delivery truck trailer motorcycle evehicle custom1 custom2" oneway="1"/>
    <type id="highway.motorway_link" priority="9" numLanes="1" speed="22.22" allow="private emergency authority army vip passenger hov taxi bus coach delivery truck trailer motorcycle evehicle custom1 custom2" oneway="1"/>
    <type id="highway.path" priority="1" numLanes="1" speed="5.56" allow="pedestrian bicycle" oneway="0" width="2.00"/>
    <type id="highway.pedestrian" priority="1" numLanes="1" speed="2.78" allow="pedestrian" oneway="1" width="2.00"/>
    <type id="highway.primary" priority="12" numLanes="2" speed="27.78" disallow="tram rail_urban rail rail_electric rail_fast ship" oneway="0"/>
    <type id="highway.primary_link" priority="7" numLanes="1" speed="22.22" disallow="tram rail_urban rail rail_electric rail_fast ship" oneway="0"/>
    <type id="highway.raceway" priority="15" numLanes="2" speed="83.33" allow="vip" oneway="0"/>
    <type id="highway.residential" priority="3" numLanes="1" speed="13.89" disallow="tram rail_urban rail rail_electric rail_fast ship" oneway="0"/>
    <type id="highway.secondary" priority="11" numLanes="1" speed="27.78" disallow="tram rail_urban rail rail_electric rail_fast ship" oneway="0"/>
    <type id="highway.secondary_link" priority="6" numLanes="1" speed="22.22" disallow="tram rail_urban rail rail_electric rail_fast ship" oneway="0"/>
    <type id="highway.service" priority="1" numLanes="1" speed="5.56" allow="pedestrian delivery bicycle" oneway="0"/>
    <type id="highway.stairs" priority="1" numLanes="1" speed="1.39" allow="pedestrian" oneway="1" width="2.00"/>
    <type id="highway.step" priority="1" numLanes="1" speed="1.39" allow="pedestrian" oneway="1" width="2.00"/>
    <type id="highway.steps" priority="1" numLanes="1" speed="1.39" allow="pedestrian" oneway="1" width="2.00"/>
    <type id="highway.tertiary" priority="10" numLanes="1" speed="22.22" disallow="tram rail_urban rail rail_electric rail_fast ship" oneway="0"/>
    <type id="highway.tertiary_link" priority="5" numLanes="1" speed="22.22" disallow="tram rail_urban rail rail_electric rail_fast ship" oneway="0"/>
    <type id="highway.track" priority="1" numLanes="1" speed="5.56" allow="pedestrian motorcycle moped bicycle" oneway="0"/>
    <type id="highway.trunk" priority="13" numLanes="2" speed="27.78" disallow="pedestrian bicycle tram rail_urban rail rail_electric rail_fast ship" oneway="0"/>
    <type id="highway.trunk_link" priority="8" numLanes="1" speed="22.22" disallow="pedestrian bicycle tram rail_urban rail rail_electric rail_fast ship" oneway="0"/>
    <type id="highway.unclassified" priority="4" numLanes="1" speed="13.89" disallow="tram rail_urban rail rail_electric rail_fast ship" oneway="0"/>
    <type id="highway.unsurfaced" priority="1" numLanes="1" speed="8.33" disallow="tram rail_urban rail rail_electric rail_fast ship" oneway="0"/>
    <type id="railway.highspeed" priority="21" numLanes="1" speed="69.44" allow="rail_fast" oneway="1"/>
    <type id="railway.light_rail" priority="19" numLanes="1" speed="27.78" allow="rail_urban" oneway="1"/>
    <type id="railway.preserved" priority="16" numLanes="1" speed="27.78" allow="rail" oneway="1"/>
    <type id="railway.rail" priority="20" numLanes="1" speed="44.44" allow="rail" oneway="1"/>
    <type id="railway.subway" priority="18" numLanes="1" speed="27.78" allow="rail_urban" oneway="1"/>
    <type id="railway.tram" priority="17" numLanes="1" speed="13.89" allow="tram" oneway="1"/>

    <edge id=":J001_0" function="internal">
        <lane id=":J001_0_0" index="0" disallow="pedestrian bicycle tram rail_urban rail rail_electric rail_fast ship" speed="22.35" length="3.11" shape="3200.46,1599.49 3199.44,1602.43"/>
    </edge>
    <edge id=":J001_1" function="internal">
        <lane id=":J001_1_0" index="0" speed="22.35" length="3.06" shape="3203.56,1600.68 3202.43,1603.57"/>
        <lane id=":J001_1_1" index="1" speed="22.35" length="3.06" shape="3206.53,1601.86 3205.42,1604.71"/>
        <lane id=":J001_1_2" index="2" speed="22.35" length="3.06" shape="3209.51,1603.04 3208.41,1605.86"/>
    </edge>
    <edge id=":J002_0" function="internal">
        <lane id=":J002_0_0" index="0" speed="22.35" length="8.20" shape="3158.11,1710.44 3157.70,1712.92 3158.18,1714.75 3158.65,1716.57 3158.23,1719.04"/>
        <lane id=":J002_0_1" index="1" speed="22.35" length="8.20" shape="3161.10,1711.59 3158.23,1719.04"/>
        <lane id=":J002_0_2" index="2" speed="22.35" length="8.20" shape="3164.09,1712.73 3161.21,1720.20"/>
        <lane id=":J002_0_3" index="3" speed="22.35" length="8.20" shape="3167.08,1713.87 3164.20,1721.35"/>
    </edge>
    <edge id=":J003_0" function="internal">
        <lane id=":J003_0_0" index="0" speed="17.88" length="19.42" shape="2928.60,2421.24 2924.59,2426.14 2920.78,2429.39 2917.23,2431.72 2914.03,2433.83"/>
    </edge>
    <edge id=":J003_1" function="internal">
        <lane id=":J003_1_0" index="0" speed="22.35" length="19.45" shape="2928.60,2421.24 2917.12,2436.87"/>
        <lane id=":J003_1_1" index="1" speed="22.35" length="19.45" shape="2931.24,2423.05 2919.72,2438.73"/>
        <lane id=":J003_1_2" index="2" speed="22.35" length="19.45" shape="2933.88,2424.86 2922.32,2440.59"/>
    </edge>
    <edge id=":J004_0" function="internal">
        <lane id=":J004_0_0" index="0" speed="17.88" length="2.93" shape="2551.08,2776.66 2548.64,2778.29"/>
    </edge>
    <edge id=":J004_1" function="internal">
        <lane id=":J004_1_0" index="0" speed="22.35" length="3.00" shape="2552.83,2779.44 2550.32,2781.01"/>
        <lane id=":J004_1_1" index="1" speed="22.35" length="3.00" shape="2554.54,2782.15 2552.00,2783.74"/>
        <lane id=":J004_1_2" index="2" speed="22.35" length="3.00" shape="2556.25,2784.85 2553.68,2786.46"/>
    </edge>
    <edge id=":J005_0" function="internal">
        <lane id=":J005_0_0" index="0" speed="17.88" length="3.81" shape="2298.99,2989.26 2296.79,2991.45"/>
        <lane id=":J005_0_1" index="1" speed="17.88" length="3.81" shape="2301.31,2991.46 2296.79,2991.45"/>
    </edge>
    <edge id=":J005_2" function="internal">
        <lane id=":J005_2_0" index="0" speed="22.35" length="3.11" shape="2301.31,2991.46 2299.13,2993.89"/>
        <lane id=":J005_2_1" index="1" speed="22.35" length="3.11" shape="2303.64,2993.66 2301.56,2995.97"/>
        <lane id=":J005_2_2" index="2" speed="22.35" length="3.11" shape="2305.96,2995.86 2303.98,2998.06"/>
    </edge>
    <edge id=":J006_0" function="internal">
        <lane id=":J006_0_0" index="0" speed="13.41" length="18.82" shape="2010.14,3314.39 2008.30,3317.59 2005.71,3320.67 2002.32,3324.20 1998.09,3328.75"/>
    </edge>
    <edge id=":J006_1" function="internal">
        <lane id=":J006_1_0" index="0" speed="17.88" length="18.36" shape="2012.87,3317.20 2000.48,3330.88"/>
        <lane id=":J006_1_1" index="1" speed="17.88" length="18.36" shape="2015.20,3319.40 2002.86,3333.00"/>
        <lane id=":J006_1_2" index="2" speed="17.88" length="18.36" shape="2017.52,3321.60 2005.25,3335.13"/>
    </edge>
    <edge id=":J007_0" function="internal">
        <lane id=":J007_0_0" index="0" speed="13.41" length="8.16" shape="1962.18,3369.01 1960.87,3371.11 1960.51,3372.89 1960.16,3374.67 1958.85,3376.76"/>
        <lane id=":J007_0_1" index="1" speed="13.41" length="8.16" shape="1964.57,3371.14 1958.85,3376.76"/>
        <lane id=":J007_0_2" index="2" speed="13.41" length="8.16" shape="1966.95,3373.27 1961.24,3378.89"/>
        <lane id=":J007_0_3" index="3" speed="13.41" length="8.16" shape="1969.34,3375.40 1963.63,3381.02"/>
    </edge>
    <edge id=":J008_0" function="internal">
        <lane id=":J008_0_0" index="0" speed="11.18" length="11.96" shape="1711.46,3590.07 1708.37,3592.05 1706.03,3593.35 1703.69,3594.17 1700.60,3594.70"/>
    </edge>
    <edge id=":J008_1" function="internal">
        <lane id=":J008_1_0" index="0" speed="13.41" length="12.12" shape="1711.46,3590.07 1708.57,3592.26 1706.96,3594.20 1705.55,3596.37 1703.28,3599.28"/>
        <lane id=":J008_1_1" index="1" speed="13.41" length="12.12" shape="1713.19,3592.76 1710.39,3594.91 1708.85,3596.82 1707.51,3598.96 1705.30,3601.81"/>
        <lane id=":J008_1_2" index="2" speed="13.41" length="12.12" shape="1714.92,3595.46 1712.20,3597.56 1710.74,3599.45 1709.47,3601.56 1707.33,3604.35"/>
    </edge>
    <edge id=":J009_0" function="internal">
        <lane id=":J009_0_0" index="0" disallow="pedestrian bicycle tram rail_urban rail rail_electric rail_fast ship" speed="10.31" length="12.66" shape="1687.41,3608.78 1688.22,3611.62 1688.25,3614.58 1687.49,3617.67 1685.94,3620.88"/>
    </edge>
    <edge id=":J009_1" function="internal">
        <lane id=":J009_1_0" index="0" disallow="pedestrian bicycle tram rail_urban rail rail_electric rail_fast ship" speed="13.41" length="12.79" shape="1694.03,3610.48 1691.53,3613.50 1689.72,3615.50 1688.05,3617.59 1685.94,3620.88"/>
        <lane id=":J009_1_1" index="1" disallow="pedestrian bicycle tram rail_urban rail rail_electric rail_fast ship" speed="13.41" length="12.79" shape="1696.55,3612.45 1694.12,3615.37 1692.37,3617.30 1690.74,3619.33 1688.70,3622.51"/>
        <lane id=":J009_1_2" index="2" disallow="pedestrian bicycle tram rail_urban rail rail_electric rail_fast ship" speed="13.41" length="12.79" shape="1699.07,3614.41 1696.72,3617.24 1695.02,3619.11 1693.44,3621.06 1691.46,3624.14"/>
    </edge>
    <edge id=":J010_0" function="internal">
        <lane id=":J010_0_0" index="0" disallow="pedestrian bicycle tram rail_urban rail rail_electric rail_fast ship" speed="13.41" length="8.06" shape="1674.78,3641.22 1674.13,3643.61 1674.45,3645.45 1674.83,3647.30 1674.33,3649.76"/>
        <lane id=":J010_0_1" index="1" disallow="pedestrian bicycle tram rail_urban rail rail_electric rail_fast ship" speed="13.41" length="8.06" shape="1677.63,3642.67 1674.33,3649.76"/>
        <lane id=":J010_0_2" index="2" disallow="pedestrian bicycle tram rail_urban rail rail_electric rail_fast ship" speed="13.46" length="8.06" shape="1680.48,3644.12 1677.27,3651.02"/>
    </edge>
    <edge id=":J011_0" function="internal">
        <lane id=":J011_0_0" index="0" speed="13.41" length="3.94" shape="1612.63,3911.76 1611.62,3915.57"/>
    </edge>
    <edge id=":J011_1" function="internal">
        <lane id=":J011_1_0" index="0" speed="13.46" length="4.19" shape="1615.75,3912.50 1614.58,3916.52"/>
    </edge>
    <edge id=":J012_0" function="internal">
        <lane id=":J012_0_0" index="0" speed="13.41" length="41.23" shape="972.05,5083.23 971.06,5090.30 968.95,5101.70 966.48,5114.00 964.40,5123.74"/>
        <lane id=":J012_0_1" index="1" speed="13.41" length="41.42" shape="972.05,5083.23 971.55,5090.40 970.52,5102.02 969.13,5114.54 967.54,5124.38"/>
    </edge>
    <edge id=":J012_2" function="internal">
        <lane id=":J012_2_0" index="0" speed="13.41" length="41.69" shape="972.05,5083.23 972.03,5090.46 972.11,5102.24 971.93,5114.92 971.14,5124.89"/>
    </edge>
    <edge id=":J012_3" function="internal">
        <lane id=":J012_3_0" index="0" speed="13.41" length="41.77" shape="975.27,5083.40 975.25,5090.64 975.32,5102.44 975.14,5115.16 974.34,5125.14"/>
    </edge>
    <edge id=":J013_0" function="internal">
        <lane id=":J013_0_0" index="0" speed="13.41" length="7.37" shape="896.96,5325.39 895.59,5327.19 894.38,5328.23 893.25,5329.32 892.14,5331.24"/>
        <lane id=":J013_0_1" index="1" speed="13.41" length="7.37" shape="896.96,5325.39 896.07,5327.36 895.85,5328.87 895.72,5330.42 895.07,5332.52"/>
        <lane id=":J013_0_2" index="2" speed="13.41" length="7.37" shape="899.70,5327.05 898.87,5328.91 898.70,5330.34 898.60,5331.81 898.01,5333.79"/>
    </edge>
    <edge id=":J014_0" function="internal">
        <lane id=":J014_0_0" index="0" speed="13.41" length="10.48" shape="871.73,5392.46 871.02,5395.53 870.65,5397.73 870.00,5399.75 868.42,5402.28"/>
    </edge>
    <edge id=":J014_1" function="internal">
        <lane id=":J014_1_0" index="0" speed="13.41" length="8.80" shape="874.80,5393.34 874.13,5395.90 873.80,5397.68 873.58,5399.49 873.23,5402.11"/>
        <lane id=":J014_1_1" index="1" speed="13.41" length="8.80" shape="877.87,5394.23 877.22,5396.72 876.91,5398.46 876.71,5400.22 876.37,5402.78"/>
    </edge>
    <edge id=":J015_0" function="internal">
        <lane id=":J015_0_0" index="0" speed="15.64" length="22.86" shape="868.45,5488.00 869.55,5510.96"/>
        <lane id=":J015_0_1" index="1" speed="15.64" length="22.86" shape="871.66,5488.05 872.74,5510.75"/>
    </edge>
    <edge id=":J015_2" function="internal">
        <lane id=":J015_2_0" index="0" disallow="bicycle tram rail_urban rail rail_electric rail_fast ship" speed="15.64" length="22.85" shape="861.03,5489.38 863.03,5495.23 864.55,5499.65 865.63,5504.39 866.36,5511.18"/>
        <lane id=":J015_2_1" index="1" disallow="bicycle tram rail_urban rail rail_electric rail_fast ship" speed="15.64" length="22.85" shape="864.13,5488.57 866.15,5494.47 867.69,5499.03 868.80,5503.95 869.55,5510.96"/>
    </edge>
    <edge id=":J016+106_0" function="internal">
        <lane id=":J016+106_0_0" index="0" speed="17.88" length="44.65" shape="759.96,5942.60 750.17,5986.13"/>
        <lane id=":J016+106_0_1" index="1" speed="17.88" length="44.65" shape="763.05,5943.40 753.25,5986.99"/>
    </edge>
    <edge id=":J016+106_2" function="internal">
        <lane id=":J016+106_2_0" index="0" speed="12.52" length="43.73" shape="766.15,5944.21 762.92,5957.99 762.65,5969.19 766.59,5976.76 776.00,5979.65"/>
    </edge>
    <edge id=":J016+106_3" function="internal">
        <lane id=":J016+106_3_0" index="0" speed="10.64" length="30.67" shape="776.05,5976.45 773.88,5974.59 773.43,5969.09 774.68,5959.97 777.64,5947.22"/>
    </edge>
    <edge id=":J016+106_4" function="internal">
        <lane id=":J016+106_4_0" index="0" speed="8.94" length="33.44" shape="776.05,5976.45 742.61,5976.20"/>
    </edge>
    <edge id=":J016+106_5" function="internal">
        <lane id=":J016+106_5_0" index="0" speed="12.06" length="9.10" shape="776.05,5976.45 767.21,5976.99 766.97,5977.06"/>
    </edge>
    <edge id=":J016+106_14" function="internal">
        <lane id=":J016+106_14_0" index="0" speed="12.06" length="17.87" shape="766.97,5977.06 760.47,5978.93 755.82,5982.27 753.25,5986.99"/>
    </edge>
    <edge id=":J016+106_6" function="internal">
        <lane id=":J016+106_6_0" index="0" speed="9.58" length="16.02" shape="765.62,5990.45 767.60,5985.68 770.00,5982.29 772.80,5980.28 776.00,5979.65"/>
    </edge>
    <edge id=":J016+106_7" function="internal">
        <lane id=":J016+106_7_0" index="0" speed="17.88" length="44.82" shape="765.62,5990.45 777.64,5947.22"/>
        <lane id=":J016+106_7_1" index="1" speed="17.88" length="44.82" shape="762.53,5989.58 774.54,5946.41"/>
        <lane id=":J016+106_7_2" index="2" speed="17.88" length="44.82" shape="759.44,5988.72 771.45,5945.60"/>
    </edge>
    <edge id=":J016+106_10" function="internal">
        <lane id=":J016+106_10_0" index="0" speed="5.99" length="9.08" shape="742.62,5979.40 745.19,5979.76 746.80,5980.86 747.43,5982.70 747.09,5985.27"/>
    </edge>
    <edge id=":J016+106_11" function="internal">
        <lane id=":J016+106_11_0" index="0" speed="8.94" length="33.38" shape="742.62,5979.40 776.00,5979.65"/>
    </edge>
    <edge id=":J016+106_12" function="internal">
        <lane id=":J016+106_12_0" index="0" speed="8.94" length="38.37" shape="756.06,5942.34 753.91,5957.15 750.95,5967.72 747.18,5974.07 742.61,5976.20"/>
    </edge>
    <edge id=":J016+106_13" function="internal">
        <lane id=":J016+106_13_0" index="0" speed="13.41" length="43.88" shape="756.06,5942.34 755.01,5949.12 752.90,5960.26 750.12,5973.17 747.09,5985.27"/>
    </edge>
    <edge id=":J017_0" function="internal">
        <lane id=":J017_0_0" index="0" speed="15.64" length="14.88" shape="682.11,6278.31 681.11,6282.87 679.67,6286.12 677.93,6288.81 676.02,6291.68"/>
    </edge>
    <edge id=":J017_1" function="internal">
        <lane id=":J017_1_0" index="0" speed="17.88" length="14.90" shape="682.11,6278.31 680.64,6293.23"/>
        <lane id=":J017_1_1" index="1" speed="17.88" length="14.90" shape="685.28,6278.74 683.82,6293.57"/>
        <lane id=":J017_1_2" index="2" speed="17.88" length="14.90" shape="688.45,6279.17 687.00,6293.90"/>
    </edge>
    <edge id=":J018_0" function="internal">
        <lane id=":J018_0_0" index="0" speed="17.88" length="6.93" shape="656.16,6598.46 655.62,6600.43 655.08,6601.73 654.40,6602.97 653.44,6604.79"/>
    </edge>
    <edge id=":J018_1" function="internal">
        <lane id=":J018_1_0" index="0" speed="17.88" length="7.15" shape="659.28,6599.18 658.65,6601.21 658.00,6602.55 657.38,6603.89 656.83,6605.94"/>
        <lane id=":J018_1_1" index="1" speed="17.88" length="7.15" shape="662.39,6599.90 661.77,6601.90 661.13,6603.21 660.52,6604.52 659.97,6606.54"/>
    </edge>
    <edge id=":J019_0" function="internal">
        <lane id=":J019_0_0" index="0" speed="17.88" length="4.51" shape="641.76,6651.56 641.76,6652.90 641.72,6653.82 641.57,6654.73 641.19,6656.01"/>
    </edge>
    <edge id=":J019_1" function="internal">
        <lane id=":J019_1_0" index="0" speed="17.88" length="9.63" shape="647.29,6647.70 644.24,6656.99"/>
        <lane id=":J019_1_1" index="1" speed="17.88" length="9.63" shape="650.28,6648.98 649.55,6651.70 648.92,6653.51 648.21,6655.31 647.28,6657.97"/>
    </edge>
    <edge id=":J020_0" function="internal">
        <lane id=":J020_0_0" index="0" speed="15.64" length="12.13" shape="584.42,6883.31 584.27,6887.03 583.80,6889.68 583.03,6892.10 582.00,6895.10"/>
    </edge>
    <edge id=":J020_1" function="internal">
        <lane id=":J020_1_0" index="0" speed="17.88" length="12.07" shape="584.42,6883.31 584.70,6886.98 585.35,6889.44 586.15,6891.89 586.91,6895.52"/>
        <lane id=":J020_1_1" index="1" speed="17.88" length="12.07" shape="587.62,6883.30 587.90,6886.83 588.54,6889.20 589.34,6891.56 590.08,6895.06"/>
        <lane id=":J020_1_2" index="2" speed="17.88" length="12.07" shape="590.82,6883.28 591.10,6886.68 591.74,6888.96 592.52,6891.23 593.25,6894.60"/>
    </edge>
    <edge id=":J021_0" function="internal">
        <lane id=":J021_0_0" index="0" speed="17.88" length="7.60" shape="601.25,7007.01 600.97,7009.21 600.46,7010.66 599.69,7012.03 598.62,7014.03"/>
    </edge>
    <edge id=":J021_1" function="internal">
        <lane id=":J021_1_0" index="0" speed="17.88" length="8.19" shape="604.44,7007.20 604.03,7009.55 603.34,7011.09 602.64,7012.63 602.20,7014.99"/>
        <lane id=":J021_1_1" index="1" speed="17.88" length="8.19" shape="607.64,7007.39 607.23,7009.76 606.53,7011.31 605.83,7012.85 605.39,7015.22"/>
    </edge>
    <edge id=":J101_0" function="internal">
        <lane id=":J101_0_0" index="0" speed="17.88" length="6.15" shape="573.79,7111.31 574.32,7109.56 574.69,7108.36 575.17,7107.21 576.05,7105.62"/>
    </edge>
    <edge id=":J101_1" function="internal">
        <lane id=":J101_1_0" index="0" speed="17.88" length="6.32" shape="570.57,7109.73 571.53,7108.10 572.00,7106.88 572.44,7105.65 573.32,7103.97"/>
        <lane id=":J101_1_1" index="1" speed="17.88" length="6.32" shape="567.92,7107.93 568.85,7106.34 569.30,7105.15 569.73,7103.95 570.58,7102.31"/>
    </edge>
    <edge id=":J102_0" function="internal">
        <lane id=":J102_0_0" index="0" speed="10.90" length="11.51" shape="610.84,6896.09 608.28,6893.67 606.42,6891.29 605.25,6888.94 604.78,6886.64"/>
    </edge>
    <edge id=":J102_1" function="internal">
        <lane id=":J102_1_0" index="0" disallow="pedestrian bicycle tram rail_urban rail rail_electric rail_fast ship" speed="15.64" length="17.11" shape="610.55,6902.48 608.59,6899.41 606.84,6896.13 605.50,6892.07 604.78,6886.64"/>
    </edge>
    <edge id=":J102_2" function="internal">
        <lane id=":J102_2_0" index="0" speed="17.88" length="17.52" shape="606.91,6903.79 604.78,6886.64"/>
        <lane id=":J102_2_1" index="1" speed="17.88" length="17.52" shape="603.74,6904.21 601.58,6886.82"/>
        <lane id=":J102_2_2" index="2" speed="17.88" length="17.52" shape="600.57,6904.62 598.39,6887.00"/>
    </edge>
    <edge id=":J103_0" function="internal">
        <lane id=":J103_0_0" index="0" speed="15.91" length="4.71" shape="657.85,6663.36 658.33,6662.05 658.78,6661.21 659.37,6660.44 660.26,6659.37"/>
    </edge>
    <edge id=":J103_1" function="internal">
        <lane id=":J103_1_0" index="0" speed="17.88" length="11.64" shape="654.81,6662.37 655.94,6659.05 656.76,6656.80 657.47,6654.51 658.30,6651.11"/>
        <lane id=":J103_1_1" index="1" speed="17.88" length="11.64" shape="651.77,6661.38 652.87,6658.15 653.67,6655.95 654.37,6653.73 655.18,6650.42"/>
    </edge>
    <edge id=":J104_0" function="internal">
        <lane id=":J104_0_0" index="0" speed="17.88" length="8.21" shape="673.40,6593.83 674.16,6591.54 675.04,6590.10 675.92,6588.65 676.68,6586.37"/>
        <lane id=":J104_0_1" index="1" speed="17.88" length="8.21" shape="673.40,6593.83 673.67,6591.43 673.47,6589.75 673.28,6588.07 673.56,6585.68"/>
        <lane id=":J104_0_2" index="2" speed="17.88" length="8.21" shape="670.28,6593.15 671.03,6590.86 671.91,6589.41 672.79,6587.96 673.56,6585.68"/>
        <lane id=":J104_0_3" index="3" speed="17.88" length="8.21" shape="670.28,6593.15 670.54,6590.75 670.35,6589.06 670.16,6587.38 670.44,6584.98"/>
    </edge>
    <edge id=":J105_0" function="internal">
        <lane id=":J105_0_0" index="0" speed="13.41" length="24.66" shape="719.48,6176.38 718.84,6172.13 718.01,6166.74 717.81,6160.06 719.05,6151.94"/>
    </edge>
    <edge id=":J105_1" function="internal">
        <lane id=":J105_1_0" index="0" speed="17.88" length="24.78" shape="715.35,6176.18 719.05,6151.94"/>
        <lane id=":J105_1_1" index="1" speed="17.88" length="24.78" shape="712.19,6175.65 715.94,6151.15"/>
        <lane id=":J105_1_2" index="2" speed="17.88" length="24.78" shape="709.04,6175.11 712.84,6150.37"/>
    </edge>
    <edge id=":J107_0" function="internal">
        <lane id=":J107_0_0" index="0" speed="15.64" length="32.11" shape="833.70,5755.25 837.20,5745.20 840.92,5736.81 844.49,5730.45 847.51,5726.46"/>
    </edge>
    <edge id=":J107_1" function="internal">
        <lane id=":J107_1_0" index="0" speed="17.88" length="32.18" shape="833.70,5755.25 842.74,5724.35"/>
        <lane id=":J107_1_1" index="1" speed="17.88" length="32.18" shape="830.64,5754.32 839.67,5723.44"/>
        <lane id=":J107_1_2" index="2" speed="17.88" length="32.18" shape="827.57,5753.39 836.61,5722.52"/>
    </edge>
    <edge id=":J108_0" function="internal">
        <lane id=":J108_0_0" index="0" speed="15.64" length="16.15" shape="859.33,5681.16 859.25,5677.73 860.01,5674.40 861.32,5670.56 862.90,5665.57"/>
    </edge>
    <edge id=":J108_1" function="internal">
        <lane id=":J108_1_0" index="0" speed="17.88" length="16.03" shape="855.43,5680.13 859.82,5664.70"/>
        <lane id=":J108_1_1" index="1" speed="17.88" length="16.03" shape="852.36,5679.25 856.74,5663.84"/>
        <lane id=":J108_1_2" index="2" speed="17.88" length="16.03" shape="849.28,5678.38 853.66,5662.97"/>
    </edge>
    <edge id=":J109_0" function="internal">
        <lane id=":J109_0_0" index="0" speed="17.88" length="8.19" shape="869.72,5641.25 869.91,5638.76 869.28,5636.99 868.65,5635.22 868.86,5632.73"/>
        <lane id=":J109_0_1" index="1" speed="17.88" length="8.19" shape="866.64,5640.39 868.86,5632.73"/>
        <lane id=":J109_0_2" index="2" speed="17.88" length="8.19" shape="863.56,5639.52 865.78,5631.84"/>
        <lane id=":J109_0_3" index="3" speed="17.88" length="8.19" shape="860.48,5638.66 862.71,5630.94"/>
    </edge>
    <edge id=":J110_0" function="internal">
        <lane id=":J110_0_0" index="0" speed="15.64" length="5.69" shape="886.38,5546.35 886.60,5544.68 886.85,5543.56 887.19,5542.45 887.69,5540.83"/>
    </edge>
    <edge id=":J110_1" function="internal">
        <lane id=":J110_1_0" index="0" speed="15.64" length="10.06" shape="883.20,5546.01 883.57,5543.03 883.86,5540.98 884.05,5538.93 884.11,5535.92"/>
        <lane id=":J110_1_1" index="1" speed="15.64" length="10.06" shape="880.02,5545.68 880.38,5542.73 880.67,5540.72 880.85,5538.71 880.91,5535.75"/>
    </edge>
    <edge id=":J1101_0" function="internal">
        <lane id=":J1101_0_0" index="0" speed="7.41" length="10.57" shape="712.48,5253.17 711.73,5256.52 710.52,5258.93 708.85,5260.40 706.70,5260.93"/>
    </edge>
    <edge id=":J1101_1" function="internal">
        <lane id=":J1101_1_0" index="0" speed="11.18" length="32.80" shape="715.65,5253.60 715.62,5263.06 718.39,5270.07 723.95,5274.62 732.31,5276.73"/>
        <lane id=":J1101_1_1" index="1" speed="10.78" length="27.47" shape="718.82,5254.04 718.78,5262.02 721.06,5267.94 725.66,5271.78 732.59,5273.54"/>
        <lane id=":J1101_1_2" index="2" speed="10.26" length="24.80" shape="718.82,5254.04 718.95,5260.63 721.34,5265.55 725.98,5268.79 732.88,5270.35"/>
    </edge>
    <edge id=":J1101_4" function="internal">
        <lane id=":J1101_4_0" index="0" speed="13.41" length="26.81" shape="733.66,5261.69 726.67,5260.99 720.21,5260.73 713.74,5260.76 706.70,5260.93"/>
        <lane id=":J1101_4_1" index="1" speed="13.41" length="26.81" shape="733.37,5264.88 726.44,5264.18 720.11,5263.92 713.76,5263.96 706.79,5264.13"/>
    </edge>
    <edge id=":J1101_6" function="internal">
        <lane id=":J1101_6_0" index="0" speed="13.41" length="25.62" shape="707.08,5275.35 713.42,5276.01 718.57,5277.30 724.20,5278.76 732.02,5279.92"/>
        <lane id=":J1101_6_1" index="1" speed="13.41" length="25.62" shape="707.08,5275.35 732.31,5276.73"/>
        <lane id=":J1101_6_2" index="2" speed="13.41" length="25.62" shape="707.00,5272.15 713.37,5272.80 718.60,5274.10 724.35,5275.56 732.31,5276.73"/>
        <lane id=":J1101_6_3" index="3" speed="13.41" length="25.62" shape="707.00,5272.15 732.59,5273.54"/>
        <lane id=":J1101_6_4" index="4" speed="13.41" length="25.62" shape="707.00,5272.15 713.44,5271.80 718.84,5270.90 724.79,5270.18 732.88,5270.35"/>
    </edge>
    <edge id=":J1101_11" function="internal">
        <lane id=":J1101_11_0" index="0" speed="11.18" length="17.75" shape="707.00,5272.15 715.64,5271.28 722.15,5268.19 723.34,5266.77"/>
        <lane id=":J1101_11_1" index="1" speed="11.18" length="15.33" shape="707.00,5272.15 714.23,5271.22 719.75,5268.05 720.71,5266.67"/>
    </edge>
    <edge id=":J1101_13" function="internal">
        <lane id=":J1101_13_0" index="0" speed="11.18" length="12.86" shape="723.34,5266.77 726.54,5262.90 728.80,5255.40"/>
    </edge>
    <edge id=":J1101_14" function="internal">
        <lane id=":J1101_14_0" index="0" speed="11.18" length="12.88" shape="720.71,5266.67 723.55,5262.63 725.63,5254.96"/>
    </edge>
    <edge id=":J1102_0" function="internal">
        <lane id=":J1102_0_0" index="0" speed="11.30" length="7.18" shape="823.74,5291.48 825.76,5291.91 827.02,5292.62 828.13,5293.67 829.69,5295.14"/>
    </edge>
    <edge id=":J1102_1" function="internal">
        <lane id=":J1102_1_0" index="0" speed="13.41" length="8.26" shape="824.14,5288.30 826.42,5288.84 827.84,5289.65 829.20,5290.67 831.31,5291.82"/>
        <lane id=":J1102_1_1" index="1" speed="13.41" length="8.26" shape="824.54,5285.13 826.88,5285.65 828.35,5286.44 829.77,5287.44 831.94,5288.60"/>
        <lane id=":J1102_1_2" index="2" speed="13.41" length="8.26" shape="824.94,5281.95 827.34,5282.47 828.87,5283.24 830.34,5284.22 832.56,5285.38"/>
    </edge>
    <edge id=":J1103_0" function="internal">