<?xml version="1.0" encoding="UTF-8"?>

<!-- generated on 2022-11-30 16:12:15.862856 by osmWebWizard.py v1_14_1+0000-f654d7b963e
<configuration>
    <allow-fringe.min-length value="1000.0"/>
    <end value="3600"/>
    <fringe-factor value="20.0"/>
    <fringe-start-attributes value="departSpeed=&quot;max&quot;"/>
    <lanes value="True"/>
    <min-distance value="300.0"/>
    <net-file value="D:\Program Files (x86)\Eclipse\Sumo\tools\2022-11-30-16-11-36\osm.net.xml"/>
    <period value="0.6188570061781508"/>
    <route-file value="D:\Program Files (x86)\Eclipse\Sumo\tools\2022-11-30-16-11-36\osm.passenger.rou.xml"/>
    <trip-attributes value="departLane=&quot;best&quot;"/>
    <output-trip-file value="D:\Program Files (x86)\Eclipse\Sumo\tools\2022-11-30-16-11-36\osm.passenger.trips.xml"/>
    <prefix value="veh"/>
    <validate value="True"/>
    <vehicle-class value="passenger"/>
</configuration>
-->

<!-- generated on 2022-11-30 16:12:14 by Eclipse SUMO duarouter Version 1.14.1
<configuration xmlns:xsi="http://www.w3.org/2001/XMLSchema-instance" xsi:noNamespaceSchemaLocation="http://sumo.dlr.de/xsd/duarouterConfiguration.xsd">

    <input>
        <net-file value="D:\Program%20Files%20(x86)\Eclipse\Sumo\tools\2022-11-30-16-11-36\osm.net.xml"/>
        <route-files value="D:\Program%20Files%20(x86)\Eclipse\Sumo\tools\2022-11-30-16-11-36\osm.passenger.trips.xml"/>
    </input>

    <output>
        <output-file value="D:\Program%20Files%20(x86)\Eclipse\Sumo\tools\2022-11-30-16-11-36\osm.passenger.trips.xml.tmp"/>
        <alternatives-output value="NUL"/>
        <write-trips value="true"/>
    </output>

    <time>
        <begin value="0"/>
        <end value="3600"/>
    </time>

    <report>
        <no-warnings value="true"/>
        <ignore-errors value="true"/>
        <no-step-log value="true"/>
    </report>

</configuration>
-->

<routes xmlns:xsi="http://www.w3.org/2001/XMLSchema-instance" xsi:noNamespaceSchemaLocation="http://sumo.dlr.de/xsd/routes_file.xsd">
    <vType id="veh_passenger" vClass="passenger"/>
    <vType id="veh_delivery" vClass="delivery"/>
    <vType id="veh_lorry" vClass="truck"/>
    <vType id="veh_motorcycle" vClass="motorcycle"/>
    <trip id="veh0" type="veh_passenger" depart="0" departLane="best" departSpeed="21.38" from="E000" to="E2230_0" via="E003" />
    <trip id="veh1" type="veh_passenger" depart="0" departLane="best" departSpeed="18.44" from="E000" to="E1100_1" via="E003 E005" />
    <trip id="veh2" type="veh_passenger" depart="0" departLane="best" departSpeed="12.83" from="E1108" to="E121" />
    <trip id="veh3" type="veh_lorry" depart="0" departLane="0" departSpeed="7.15" from="E2320_0" to="E021" />
    <trip id="veh4" type="veh_motorcycle" depart="0" departLane="best" departSpeed="8.51" from="E2370_1" to="E2310_1" />
    <trip id="veh5" type="veh_passenger" depart="0" departLane="best" departSpeed="15.24" from="E1200" to="E1202" />
    <trip id="veh6" type="veh_passenger" depart="0" departLane="best" departSpeed="19.13" from="E100" to="E1107" />
    <trip id="veh7" type="veh_passenger" depart="1" departLane="best" departSpeed="21.05" from="E000" to="E2240_0" via="E003" />
    <trip id="veh8" type="veh_delivery" depart="1" departLane="best" departSpeed="11.09" from="E1000_0" to="E2001_0" via="E003 E005" />
    <trip id="veh9" type="veh_passenger" depart="1" departLane="best" departSpeed="12.15" from="E1108" to="E121" />
    <trip id="veh10" type="veh_delivery" depart="1" departLane="best" departSpeed="12.55" from="E1108" to="E2001_0" />
    <trip id="veh11" type="veh_lorry" depart="1" departLane="0" departSpeed="8.25" from="E2310_0" to="E2320_1" />
    <trip id="veh12" type="veh_passenger" depart="1" departLane="best" departSpeed="15.12" from="E1300" to="E1301" />
    <trip id="veh13" type="veh_delivery" depart="1" departLane="best" departSpeed="14.16" from="E100" to="E2330_0" />
    <trip id="veh14" type="veh_passenger" depart="2" departLane="best" departSpeed="11.88" from="E2200_0" to="E2240_0" />
    <trip id="veh15" type="veh_passenger" depart="2" departLane="best" departSpeed="9.02" from="E2300_0" to="E021" />
    <trip id="veh16" type="veh_motorcycle" depart="2" departLane="best" departSpeed="15.17" from="E1200" to="E1202" />
    <trip id="veh17" type="veh_delivery" depart="2" departLane="best" departSpeed="15.04" from="E1300" to="E1301" />
    <trip id="veh18" type="veh_passenger" depart="3" departLane="best" departSpeed="22.14" from="E000" to="E3000" />
    <trip id="veh19" type="veh_passenger" depart="3" departLane="best" departSpeed="24.01" from="E000" to="E2300_1" via="E003 E005" />
    <trip id="veh20" type="veh_passenger" depart="3" departLane="best" departSpeed="25.88" from="E000" to="E1107" via="E003 E005" />
    <trip id="veh21" type="veh_passenger" depart="3" departLane="best" departSpeed="22.57" from="E000" to="E3300_1" via="E003 E005" />
    <trip id="veh22" type="veh_passenger" depart="3" departLane="best" departSpeed="13.77" from="E1100_0" to="E121" />
    <trip id="veh23" type="veh_passenger" depart="3" departLane="best" departSpeed="14.79" from="E1108" to="E121" />
    <trip id="veh24" type="veh_motorcycle" depart="3" departLane="best" departSpeed="11.78" from="E1108" to="E121" />
    <trip id="veh25" type="veh_delivery" depart="4" departLane="best" departSpeed="21.32" from="E000" to="E2110_0" />
    <trip id="veh26" type="veh_delivery" depart="4" departLane="best" departSpeed="16.99" from="E000" to="E2221_0" via="E003" />
    <trip id="veh27" type="veh_passenger" depart="4" departLane="best" departSpeed="11.26" from="E1000_0" to="E021" via="E003 E005" />
    <trip id="veh28" type="veh_passenger" depart="4" departLane="best" departSpeed="12.65" from="E1108" to="E121" />
    <trip id="veh29" type="veh_passenger" depart="4" departLane="best" departSpeed="14.38" from="E1108" to="E121" />
    <trip id="veh30" type="veh_delivery" depart="4" departLane="best" departSpeed="13.1" from="E1108" to="E1100_1" />
    <trip id="veh31" type="veh_delivery" depart="4" departLane="best" departSpeed="13.63" from="E1200" to="E1202" />
    <trip id="veh32" type="veh_motorcycle" depart="4" departLane="best" departSpeed="12.18" from="E1200" to="E4206" />
    <trip id="veh33" type="veh_passenger" depart="5" departLane="best" departSpeed="20.66" from="E000" to="E4120" via="E003 E005" />
    <trip id="veh34" type="veh_passenger" depart="5" departLane="best" departSpeed="10.64" from="E2001_1" to="E021" via="E003 E005" />
    <trip id="veh35" type="veh_passenger" depart="5" departLane="best" departSpeed="8.91" from="E2300_0" to="E1100_1" />
    <trip id="veh36" type="veh_passenger" depart="5" departLane="best" departSpeed="12.86" from="E1200" to="E2300_1" />
    <trip id="veh37" type="veh_delivery" depart="5" departLane="best" departSpeed="11.65" from="E1200" to="E1202" />
    <trip id="veh38" type="veh_passenger" depart="6" departLane="best" departSpeed="22.91" from="E000" to="E1100_1" via="E003 E005" />
    <trip id="veh39" type="veh_passenger" depart="6" departLane="best" departSpeed="23.37" from="E000" to="E1107" via="E003 E005" />
    <trip id="veh40" type="veh_delivery" depart="6" departLane="best" departSpeed="13.37" from="E2220_1" to="E021" />
    <trip id="veh41" type="veh_passenger" depart="6" departLane="best" departSpeed="7.98" from="E2300_0" to="E1100_1" />
    <trip id="veh42" type="veh_passenger" depart="6" departLane="best" departSpeed="8.93" from="E2310_0" to="E1000_1" />
    <trip id="veh43" type="veh_motorcycle" depart="6" departLane="best" departSpeed="16.83" from="E100" to="E2200_1" />
    <trip id="veh44" type="veh_passenger" depart="7" departLane="best" departSpeed="13.21" from="E1000_0" to="E021" via="E003 E005" />
    <trip id="veh45" type="veh_passenger" depart="7" departLane="best" departSpeed="13.44" from="E2100_0" to="E2110_0" />
    <trip id="veh46" type="veh_lorry" depart="7" departLane="0" departSpeed="8.51" from="E1108" to="E121" />
    <trip id="veh47" type="veh_passenger" depart="7" departLane="best" departSpeed="14.33" from="E1200" to="E1202" />
    <trip id="veh48" type="veh_motorcycle" depart="7" departLane="best" departSpeed="17.42" from="E100" to="E121" />
    <trip id="veh49" type="veh_passenger" depart="7" departLane="best" departSpeed="13.8" from="E100" to="E1000_1" />
    <trip id="veh50" type="veh_passenger" depart="7" departLane="best" departSpeed="17.96" from="E4207" to="E1301" />
    <trip id="veh51" type="veh_motorcycle" depart="8" departLane="best" departSpeed="21.68" from="E000" to="E3111_0" via="E003 E005" />
    <trip id="veh52" type="veh_passenger" depart="8" departLane="best" departSpeed="25.0" from="E000" to="E1100_1" via="E003 E005" />
    <trip id="veh53" type="veh_passenger" depart="8" departLane="best" departSpeed="18.52" from="E000" to="E2350_1" via="E003 E005" />
    <trip id="veh54" type="veh_delivery" depart="8" departLane="best" departSpeed="19.55" from="E000" to="E021" via="E003 E005" />
    <trip id="veh55" type="veh_motorcycle" depart="8" departLane="best" departSpeed="22.0" from="E000" to="E021" via="E003 E005" />
    <trip id="veh56" type="veh_motorcycle" depart="8" departLane="best" departSpeed="14.65" from="E1300" to="E1301" />
    <trip id="veh57" type="veh_passenger" depart="8" departLane="best" departSpeed="16.52" from="E100" to="E2240_0" />
    <trip id="veh58" type="veh_passenger" depart="8" departLane="best" departSpeed="21.81" from="E4207" to="E1301" />
    <trip id="veh59" type="veh_passenger" depart="9" departLane="best" departSpeed="25.14" from="E000" to="E021" via="E003 E005" />
    <trip id="veh60" type="veh_passenger" depart="9" departLane="best" departSpeed="15.26" from="E2110_1" to="E121" />
    <trip id="veh61" type="veh_passenger" depart="9" departLane="best" departSpeed="9.18" from="E3200_0" to="E021" />
    <trip id="veh62" type="veh_delivery" depart="9" departLane="best" departSpeed="9.31" from="E2310_0" to="E121" />
    <trip id="veh63" type="veh_passenger" depart="9" departLane="best" departSpeed="8.39" from="E2330_1" to="E2320_1" />
    <trip id="veh64" type="veh_delivery" depart="9" departLane="best" departSpeed="13.4" from="E1200" to="E1202" />
    <trip id="veh65" type="veh_delivery" depart="9" departLane="best" departSpeed="14.59" from="E4207" to="E4208" />
    <trip id="veh66" type="veh_passenger" depart="10" departLane="best" departSpeed="21.01" from="E000" to="E2330_0" via="E003 E005" />
    <trip id="veh67" type="veh_passenger" depart="10" departLane="best" departSpeed="13.15" from="E4210" to="E4206" />
    <trip id="veh68" type="veh_motorcycle" depart="10" departLane="best" departSpeed="16.67" from="E100" to="E2200_1" />
    <trip id="veh69" type="veh_passenger" depart="11" departLane="best" departSpeed="8.49" from="E2300_0" to="E1100_1" />
    <trip id="veh70" type="veh_passenger" depart="11" departLane="best" departSpeed="8.75" from="E2310_0" to="E121" />
    <trip id="veh71" type="veh_passenger" depart="11" departLane="best" departSpeed="10.12" from="E2330_1" to="E121" />
    <trip id="veh72" type="veh_passenger" depart="11" departLane="best" departSpeed="19.29" from="E100" to="E1107" />
    <trip id="veh73" type="veh_passenger" depart="12" departLane="best" departSpeed="22.31" from="E000" to="E1100_1" via="E003 E005" />
    <trip id="veh74" type="veh_passenger" depart="12" departLane="best" departSpeed="22.49" from="E000" to="E1100_1" via="E003 E005" />
    <trip id="veh75" type="veh_motorcycle" depart="12" departLane="best" departSpeed="28.01" from="E000" to="E021" via="E003 E005" />
    <trip id="veh76" type="veh_delivery" depart="12" departLane="best" departSpeed="17.72" from="E000" to="E021" via="E003 E005" />
    <trip id="veh77" type="veh_passenger" depart="12" departLane="best" departSpeed="19.78" from="E4000" to="E2001_0" />
    <trip id="veh78" type="veh_passenger" depart="12" departLane="best" departSpeed="14.18" from="E1000_0" to="E2001_0" via="E003 E005" />
    <trip id="veh79" type="veh_passenger" depart="12" departLane="best" departSpeed="12.5" from="E1000_0" to="E2200_1" via="E003" />
    <trip id="veh80" type="veh_delivery" depart="12" departLane="best" departSpeed="13.56" from="E2110_1" to="E1100_1" />
    <trip id="veh81" type="veh_passenger" depart="12" departLane="best" departSpeed="7.98" from="E2360_1" to="E121" />
    <trip id="veh82" type="veh_delivery" depart="13" departLane="best" departSpeed="13.76" from="E2100_0" to="E2300_1" />
    <trip id="veh83" type="veh_delivery" depart="13" departLane="best" departSpeed="10.62" from="E2110_1" to="E4208" />
    <trip id="veh84" type="veh_passenger" depart="13" departLane="best" departSpeed="14.92" from="E2200_0" to="E121" />
    <trip id="veh85" type="veh_lorry" depart="13" departLane="0" departSpeed="8.0" from="E2330_1" to="E2320_1" />
    <trip id="veh86" type="veh_passenger" depart="13" departLane="best" departSpeed="19.53" from="E100" to="E2100_1" />
    <trip id="veh87" type="veh_passenger" depart="14" departLane="best" departSpeed="14.45" from="E1100_0" to="E2200_1" />
    <trip id="veh88" type="veh_passenger" depart="14" departLane="best" departSpeed="12.76" from="E1200" to="E1107" />
    <trip id="veh89" type="veh_passenger" depart="14" departLane="best" departSpeed="12.89" from="E1200" to="E1202" />
    <trip id="veh90" type="veh_passenger" depart="14" departLane="best" departSpeed="18.85" from="E100" to="E121" />
    <trip id="veh91" type="veh_passenger" depart="14" departLane="best" departSpeed="16.89" from="E100" to="E2001_0" />
    <trip id="veh92" type="veh_passenger" depart="15" departLane="best" departSpeed="15.79" from="E2200_0" to="E2221_0" />
    <trip id="veh93" type="veh_passenger" depart="15" departLane="best" departSpeed="12.27" from="E2240_1" to="E1100_1" />
    <trip id="veh94" type="veh_delivery" depart="15" departLane="best" departSpeed="8.55" from="E3111_1" to="E021" />
    <trip id="veh95" type="veh_passenger" depart="15" departLane="best" departSpeed="15.52" from="E1108" to="E021" />
    <trip id="veh96" type="veh_passenger" depart="15" departLane="best" departSpeed="10.08" from="E3400" to="E1301" />
    <trip id="veh97" type="veh_passenger" depart="15" departLane="best" departSpeed="8.73" from="E2370_1" to="E1100_1" />
    <trip id="veh98" type="veh_passenger" depart="15" departLane="best" departSpeed="14.53" from="E1200" to="E2370_0" />
    <trip id="veh99" type="veh_passenger" depart="15" departLane="best" departSpeed="11.74" from="E4210" to="E4206" />
    <trip id="veh100" type="veh_passenger" depart="15" departLane="best" departSpeed="12.04" from="E4210" to="E4206" />
    <trip id="veh101" type="veh_passenger" depart="16" departLane="best" departSpeed="23.83" from="E000" to="E1107" via="E003 E005" />
    <trip id="veh102" type="veh_passenger" depart="16" departLane="best" departSpeed="11.18" from="E1000_0" to="E4208" via="E003 E005" />
    <trip id="veh103" type="veh_passenger" depart="16" departLane="best" departSpeed="9.99" from="E2110_1" to="E1000_1" />
    <trip id="veh104" type="veh_passenger" depart="16" departLane="best" departSpeed="8.83" from="E2300_0" to="E021" />
    <trip id="veh105" type="veh_passenger" depart="17" departLane="best" departSpeed="28.24" from="E000" to="E2100_1" via="E003 E005" />
    <trip id="veh106" type="veh_passenger" depart="17" departLane="best" departSpeed="14.18" from="E2110_1" to="E021" />
    <trip id="veh107" type="veh_motorcycle" depart="17" departLane="best" departSpeed="13.82" from="E1300" to="E1301" />
    <trip id="veh108" type="veh_delivery" depart="18" departLane="best" departSpeed="24.33" from="E000" to="E021" via="E003 E005" />
    <trip id="veh109" type="veh_motorcycle" depart="18" departLane="best" departSpeed="13.26" from="E2110_1" to="E2100_1" />
    <trip id="veh110" type="veh_passenger" depart="18" departLane="best" departSpeed="15.13" from="E1108" to="E1100_1" />
    <trip id="veh111" type="veh_motorcycle" depart="18" departLane="best" departSpeed="16.57" from="E100" to="E121" />
    <trip id="veh112" type="veh_passenger" depart="18" departLane="best" departSpeed="19.54" from="E4207" to="E4208" />
    <trip id="veh113" type="veh_delivery" depart="19" departLane="best" departSpeed="13.14" from="E2121_1" to="E1100_1" />
    <trip id="veh114" type="veh_passenger" depart="19" departLane="best" departSpeed="12.87" from="E1108" to="E1100_1" />
    <trip id="veh115" type="veh_passenger" depart="19" departLane="best" departSpeed="7.5" from="E2320_0" to="E2330_0" />
    <trip id="veh116" type="veh_passenger" depart="20" departLane="best" departSpeed="18.63" from="E000" to="E1301" via="E003 E005" />
    <trip id="veh117" type="veh_delivery" depart="20" departLane="best" departSpeed="10.82" from="E2220_1" to="E121" />
    <trip id="veh118" type="veh_motorcycle" depart="20" departLane="best" departSpeed="15.54" from="E1200" to="E1100_1" />
    <trip id="veh119" type="veh_delivery" depart="20" departLane="best" departSpeed="14.98" from="E1200" to="E1202" />
    <trip id="veh120" type="veh_passenger" depart="21" departLane="best" departSpeed="24.37" from="E000" to="E021" via="E003 E005" />
    <trip id="veh121" type="veh_passenger" depart="21" departLane="best" departSpeed="14.05" from="E2121_1" to="E2100_1" />
    <trip id="veh122" type="veh_lorry" depart="21" departLane="0" departSpeed="11.54" from="E2110_1" to="E2121_0" />
    <trip id="veh123" type="veh_delivery" depart="21" departLane="best" departSpeed="12.8" from="E2220_1" to="E2200_1" />
    <trip id="veh124" type="veh_passenger" depart="21" departLane="best" departSpeed="13.44" from="E2240_1" to="E121" />
    <trip id="veh125" type="veh_passenger" depart="21" departLane="best" departSpeed="9.16" from="E2300_0" to="E1100_1" />
    <trip id="veh126" type="veh_passenger" depart="21" departLane="best" departSpeed="10.97" from="E1108" to="E021" />
    <trip id="veh127" type="veh_passenger" depart="21" departLane="best" departSpeed="9.68" from="E2340_0" to="E2342_0" />
    <trip id="veh128" type="veh_passenger" depart="21" departLane="best" departSpeed="14.73" from="E4210" to="E2300_1" via="E4212" />
    <trip id="veh129" type="veh_delivery" depart="22" departLane="best" departSpeed="8.53" from="E3010" to="E021" />
    <trip id="veh130" type="veh_passenger" depart="22" departLane="best" departSpeed="8.19" from="E2310_0" to="E4208" />
    <trip id="veh131" type="veh_delivery" depart="22" departLane="best" departSpeed="12.3" from="E1200" to="E1202" />
    <trip id="veh132" type="veh_delivery" depart="22" departLane="best" departSpeed="12.85" from="E4210" to="E4206" />
    <trip id="veh133" type="veh_passenger" depart="23" departLane="best" departSpeed="13.02" from="E2240_1" to="E2200_1" />
    <trip id="veh134" type="veh_passenger" depart="23" departLane="best" departSpeed="7.98" from="E2300_0" to="E1100_1" />
    <trip id="veh135" type="veh_motorcycle" depart="23" departLane="best" departSpeed="7.41" from="E3300_0" to="E4208" />
    <trip id="veh136" type="veh_passenger" depart="23" departLane="best" departSpeed="14.16" from="E1200" to="E4206" />
    <trip id="veh137" type="veh_passenger" depart="23" departLane="best" departSpeed="12.7" from="E1300" to="E1301" />
    <trip id="veh138" type="veh_passenger" depart="23" departLane="best" departSpeed="14.14" from="E100" to="E121" />
    <trip id="veh139" type="veh_passenger" depart="23" departLane="best" departSpeed="19.07" from="E100" to="E2110_0" />
    <trip id="veh140" type="veh_passenger" depart="24" departLane="best" departSpeed="24.75" from="E000" to="E021" via="E003 E005" />
    <trip id="veh141" type="veh_delivery" depart="24" departLane="best" departSpeed="11.28" from="E2121_1" to="E021" />
    <trip id="veh142" type="veh_passenger" depart="24" departLane="best" departSpeed="13.36" from="E1108" to="E4208" />
    <trip id="veh143" type="veh_passenger" depart="24" departLane="best" departSpeed="21.26" from="E100" to="E1000_1" />
    <trip id="veh144" type="veh_passenger" depart="25" departLane="best" departSpeed="24.6" from="E000" to="E2230_0" via="E003" />
    <trip id="veh145" type="veh_motorcycle" depart="25" departLane="best" departSpeed="25.67" from="E000" to="E1107" via="E003 E005" />
    <trip id="veh146" type="veh_passenger" depart="25" departLane="best" departSpeed="11.06" from="E2121_1" to="E121" />
    <trip id="veh147" type="veh_delivery" depart="25" departLane="best" departSpeed="8.34" from="E3200_0" to="E021" />
    <trip id="veh148" type="veh_passenger" depart="25" departLane="best" departSpeed="14.37" from="E4209" to="E1301" />
    <trip id="veh149" type="veh_passenger" depart="26" departLane="best" departSpeed="22.55" from="E000" to="E2200_1" via="E003" />
    <trip id="veh150" type="veh_passenger" depart="26" departLane="best" departSpeed="23.03" from="E000" to="E1107" via="E003 E005" />
    <trip id="veh151" type="veh_passenger" depart="26" departLane="best" departSpeed="12.34" from="E1000_0" to="E021" via="E003 E005" />
    <trip id="veh152" type="veh_passenger" depart="26" departLane="best" departSpeed="9.69" from="E2300_0" to="E2330_0" />
    <trip id="veh153" type="veh_passenger" depart="26" departLane="best" departSpeed="8.55" from="E2310_0" to="E2320_1" />
    <trip id="veh154" type="veh_passenger" depart="26" departLane="best" departSpeed="12.81" from="E1200" to="E1202" />
    <trip id="veh155" type="veh_delivery" depart="27" departLane="best" departSpeed="11.78" from="E2100_0" to="E021" />
    <trip id="veh156" type="veh_passenger" depart="27" departLane="best" departSpeed="12.31" from="E1108" to="E3200_1" />
    <trip id="veh157" type="veh_passenger" depart="27" departLane="best" departSpeed="8.95" from="E2330_1" to="E2310_1" />
    <trip id="veh158" type="veh_motorcycle" depart="27" departLane="best" departSpeed="13.77" from="E1200" to="E4206" />
    <trip id="veh159" type="veh_passenger" depart="28" departLane="best" departSpeed="23.18" from="E000" to="E021" via="E003 E005" />
    <trip id="veh160" type="veh_delivery" depart="28" departLane="best" departSpeed="13.02" from="E2001_1" to="E2300_1" via="E003 E005" />
    <trip id="veh161" type="veh_motorcycle" depart="28" departLane="best" departSpeed="12.24" from="E2200_0" to="E2300_1" />
    <trip id="veh162" type="veh_passenger" depart="28" departLane="best" departSpeed="10.3" from="E2350_0" to="E4208" />
    <trip id="veh163" type="veh_passenger" depart="29" departLane="best" departSpeed="22.72" from="E000" to="E2200_1" via="E003" />
    <trip id="veh164" type="veh_passenger" depart="29" departLane="best" departSpeed="23.14" from="E000" to="E2300_1" via="E003 E005" />
    <trip id="veh165" type="veh_passenger" depart="29" departLane="best" departSpeed="11.89" from="E2100_0" to="E121" />
    <trip id="veh166" type="veh_passenger" depart="29" departLane="best" departSpeed="8.7" from="E2300_0" to="E1107" />
    <trip id="veh167" type="veh_passenger" depart="29" departLane="best" departSpeed="9.21" from="E2310_0" to="E2100_1" />
    <trip id="veh168" type="veh_passenger" depart="29" departLane="best" departSpeed="8.44" from="E2340_0" to="E021" />
    <trip id="veh169" type="veh_delivery" depart="29" departLane="best" departSpeed="13.21" from="E4209" to="E1301" />
    <trip id="veh170" type="veh_passenger" depart="29" departLane="best" departSpeed="18.36" from="E100" to="E2300_1" />
    <trip id="veh171" type="veh_delivery" depart="30" departLane="best" departSpeed="13.25" from="E1108" to="E2221_0" />
    <trip id="veh172" type="veh_passenger" depart="30" departLane="best" departSpeed="10.26" from="E2310_0" to="E021" />
    <trip id="veh173" type="veh_delivery" depart="30" departLane="best" departSpeed="13.12" from="E1300" to="E1301" />
    <trip id="veh174" type="veh_delivery" depart="30" departLane="best" departSpeed="16.87" from="E4207" to="E4208" />
    <trip id="veh175" type="veh_passenger" depart="31" departLane="best" departSpeed="9.39" from="E2300_0" to="E2001_0" />
    <trip id="veh176" type="veh_passenger" depart="31" departLane="best" departSpeed="11.63" from="E1108" to="E1100_1" />
    <trip id="veh177" type="veh_passenger" depart="32" departLane="best" departSpeed="10.99" from="E1100_0" to="E1107" />
    <trip id="veh178" type="veh_delivery" depart="32" departLane="best" departSpeed="12.35" from="E1100_0" to="E1107" />
    <trip id="veh179" type="veh_delivery" depart="32" departLane="best" departSpeed="14.12" from="E4207" to="E4208" />
    <trip id="veh180" type="veh_passenger" depart="33" departLane="best" departSpeed="25.01" from="E000" to="E3300_1" via="E003 E005" />
    <trip id="veh181" type="veh_delivery" depart="33" departLane="best" departSpeed="20.96" from="E000" to="E021" via="E003 E005" />
    <trip id="veh182" type="veh_passenger" depart="33" departLane="best" departSpeed="15.38" from="E2100_0" to="E2110_0" />
    <trip id="veh183" type="veh_passenger" depart="33" departLane="best" departSpeed="13.91" from="E1100_0" to="E1107" />
    <trip id="veh184" type="veh_passenger" depart="33" departLane="best" departSpeed="10.28" from="E2310_0" to="E1107" />
    <trip id="veh185" type="veh_motorcycle" depart="33" departLane="best" departSpeed="14.12" from="E4210" to="E4206" />
    <trip id="veh186" type="veh_delivery" depart="33" departLane="best" departSpeed="12.91" from="E4210" to="E4206" />
    <trip id="veh187" type="veh_passenger" depart="33" departLane="best" departSpeed="16.27" from="E100" to="E2310_1" />
    <trip id="veh188" type="veh_passenger" depart="34" departLane="best" departSpeed="21.67" from="E000" to="E1107" via="E003 E005" />
    <trip id="veh189" type="veh_passenger" depart="34" departLane="best" departSpeed="11.72" from="E1100_0" to="E1107" />
    <trip id="veh190" type="veh_passenger" depart="34" departLane="best" departSpeed="13.12" from="E1300" to="E1301" />
    <trip id="veh191" type="veh_passenger" depart="35" departLane="best" departSpeed="12.62" from="E2230_1" to="E2300_1" />
    <trip id="veh192" type="veh_lorry" depart="35" departLane="0" departSpeed="11.01" from="E1108" to="E2330_0" />
    <trip id="veh193" type="veh_passenger" depart="35" departLane="best" departSpeed="14.89" from="E1108" to="E1301" />
    <trip id="veh194" type="veh_passenger" depart="35" departLane="best" departSpeed="8.23" from="E2370_1" to="E121" />
    <trip id="veh195" type="veh_motorcycle" depart="35" departLane="best" departSpeed="12.29" from="E1200" to="E1202" />
    <trip id="veh196" type="veh_passenger" depart="35" departLane="best" departSpeed="12.69" from="E1300" to="E1301" />
    <trip id="veh197" type="veh_passenger" depart="35" departLane="best" departSpeed="18.77" from="E100" to="E2230_0" />
    <trip id="veh198" type="veh_motorcycle" depart="36" departLane="best" departSpeed="24.3" from="E000" to="E2100_1" via="E003 E005" />
    <trip id="veh199" type="veh_passenger" depart="36" departLane="best" departSpeed="21.8" from="E000" to="E2110_0" />
    <trip id="veh200" type="veh_passenger" depart="36" departLane="best" departSpeed="12.99" from="E2110_1" to="E2100_1" />
    <trip id="veh201" type="veh_passenger" depart="36" departLane="best" departSpeed="17.28" from="E2200_0" to="E2230_0" />
    <trip id="veh202" type="veh_passenger" depart="36" departLane="best" departSpeed="9.92" from="E2300_0" to="E1100_1" />
    <trip id="veh203" type="veh_passenger" depart="36" departLane="best" departSpeed="10.11" from="E2300_0" to="E4208" />
    <trip id="veh204" type="veh_passenger" depart="36" departLane="best" departSpeed="14.56" from="E1100_0" to="E1107" />
    <trip id="veh205" type="veh_motorcycle" depart="36" departLane="best" departSpeed="9.03" from="E2320_0" to="E2330_0" />
    <trip id="veh206" type="veh_passenger" depart="36" departLane="best" departSpeed="12.61" from="E1300" to="E1301" />
    <trip id="veh207" type="veh_passenger" depart="36" departLane="best" departSpeed="20.02" from="E100" to="E2110_0" />
    <trip id="veh208" type="veh_lorry" depart="36" departLane="0" departSpeed="18.51" from="E100" to="E1100_1" />
    <trip id="veh209" type="veh_passenger" depart="37" departLane="best" departSpeed="14.37" from="E2230_1" to="E121" />
    <trip id="veh210" type="veh_passenger" depart="37" departLane="best" departSpeed="9.04" from="E2300_0" to="E1100_1" />
    <trip id="veh211" type="veh_lorry" depart="37" departLane="0" departSpeed="11.4" from="E1100_0" to="E021" />
    <trip id="veh212" type="veh_passenger" depart="37" departLane="best" departSpeed="12.89" from="E4209" to="E121" />
    <trip id="veh213" type="veh_passenger" depart="37" departLane="best" departSpeed="12.09" from="E4210" to="E1100_1" via="E4212" />
    <trip id="veh214" type="veh_passenger" depart="38" departLane="best" departSpeed="20.86" from="E000" to="E021" via="E003 E005" />
    <trip id="veh215" type="veh_passenger" depart="38" departLane="best" departSpeed="13.41" from="E2200_0" to="E021" />
    <trip id="veh216" type="veh_passenger" depart="38" departLane="best" departSpeed="12.51" from="E1100_0" to="E2300_1" />
    <trip id="veh217" type="veh_lorry" depart="38" departLane="0" departSpeed="10.49" from="E1200" to="E1202" />
    <trip id="veh218" type="veh_delivery" depart="38" departLane="best" departSpeed="14.89" from="E1300" to="E1301" />
    <trip id="veh219" type="veh_passenger" depart="39" departLane="best" departSpeed="14.01" from="E1000_0" to="E2110_0" />
    <trip id="veh220" type="veh_passenger" depart="39" departLane="best" departSpeed="9.54" from="E3010" to="E121" />
    <trip id="veh221" type="veh_passenger" depart="39" departLane="best" departSpeed="10.25" from="E2110_1" to="E2300_1" />
    <trip id="veh222" type="veh_delivery" depart="39" departLane="best" departSpeed="14.31" from="E2240_1" to="E021" />
    <trip id="veh223" type="veh_passenger" depart="39" departLane="best" departSpeed="10.32" from="E2300_0" to="E1100_1" />
    <trip id="veh224" type="veh_passenger" depart="39" departLane="best" departSpeed="14.14" from="E1100_0" to="E2300_1" />