<?xml version="1.0" encoding="UTF-8"?>

<!-- generated on 2025-05-23 13:50:46 by Eclipse SUMO netedit Version 1.22.0
-->

<routes xmlns:xsi="http://www.w3.org/2001/XMLSchema-instance" xsi:noNamespaceSchemaLocation="http://sumo.dlr.de/xsd/routes_file.xsd">
    <!-- VTypes -->
    <vType id="veh_passenger" vClass="passenger"/>
    <!-- Vehicles, persons and containers (sorted by depart) -->
    <trip id="veh0" type="veh_passenger" depart="0.00" departLane="best" from="-44027589#3" to="-293858828#2"/>
    <trip id="veh1" type="veh_passenger" depart="8.10" departLane="best" from="140001530#0" to="12373020#0"/>
    <trip id="veh2" type="veh_passenger" depart="16.19" departLane="best" from="491443474#0" to="584532229"/>
    <trip id="veh3" type="veh_passenger" depart="24.29" departLane="best" from="675305862#0" to="-908375889#1"/>
    <trip id="veh6" type="veh_passenger" depart="48.58" departLane="best" from="44027589#0" to="1214315734"/>
    <trip id="veh7" type="veh_passenger" depart="56.68" departLane="best" departSpeed="max" from="449991630" to="295124094#0"/>
    <trip id="veh8" type="veh_passenger" depart="64.78" departLane="best" from="126301386#0" to="32065149"/>
    <trip id="veh10" type="veh_passenger" depart="80.97" departLane="best" from="8380852#2" to="20045755#0"/>
    <trip id="veh11" type="veh_passenger" depart="89.07" departLane="best" departSpeed="max" from="1112801410#0" to="1017861008#0"/>
    <trip id="veh14" type="veh_passenger" depart="113.36" departLane="best" departSpeed="max" from="238324885#0" to="295215809#0"/>
    <trip id="veh15" type="veh_passenger" depart="121.46" departLane="best" from="545932590#0" to="44029116#0"/>
    <trip id="veh16" type="veh_passenger" depart="129.56" departLane="best" from="550620361" to="32065149"/>
    <trip id="veh18" type="veh_passenger" depart="145.75" departLane="best" from="126302004" to="1360091609#0"/>
    <trip id="veh19" type="veh_passenger" depart="153.85" departLane="best" departSpeed="max" from="1112801410#0" to="12373020#0"/>
    <trip id="veh20" type="veh_passenger" depart="161.95" departLane="best" departSpeed="max" from="1112801410#0" to="1360091605"/>
    <trip id="veh21" type="veh_passenger" depart="170.05" departLane="best" departSpeed="max" from="238324885#0" to="-962829744"/>
    <trip id="veh24" type="veh_passenger" depart="194.34" departLane="best" from="-1112888042#1" to="237725943#0"/>
    <trip id="veh25" type="veh_passenger" depart="202.44" departLane="best" from="908375892" to="478725549#0"/>
    <trip id="veh26" type="veh_passenger" depart="210.53" departLane="best" departSpeed="max" from="328020777#0" to="511211618#0"/>
    <trip id="veh27" type="veh_passenger" depart="218.63" departLane="best" from="545937949#0" to="545084605"/>
    <trip id="veh28" type="veh_passenger" depart="226.73" departLane="best" from="126302004" to="-293858828#2"/>
    <trip id="veh29" type="veh_passenger" depart="234.83" departLane="best" from="20045755#0" to="1330414891"/>
    <trip id="veh30" type="veh_passenger" depart="242.92" departLane="best" departSpeed="max" from="449991630" to="237725943#0"/>
    <trip id="veh32" type="veh_passenger" depart="259.12" departLane="best" departSpeed="max" from="328020777#0" to="126304603#0"/>
    <trip id="veh33" type="veh_passenger" depart="267.22" departLane="best" departSpeed="max" from="328020777#0" to="803424596"/>
    <trip id="veh34" type="veh_passenger" depart="275.31" departLane="best" departSpeed="max" from="238324885#0" to="12373020#0"/>
    <trip id="veh36" type="veh_passenger" depart="291.51" departLane="best" departSpeed="max" from="1112801410#0" to="-293858828#2"/>
    <trip id="veh37" type="veh_passenger" depart="299.61" departLane="best" from="532696001#0" to="20042722#0"/>
    <trip id="veh38" type="veh_passenger" depart="307.70" departLane="best" from="1065887039" to="237725943#0"/>
    <trip id="veh39" type="veh_passenger" depart="315.80" departLane="best" from="922450172" to="295124094#0"/>
    <trip id="veh41" type="veh_passenger" depart="332.00" departLane="best" from="1235276476" to="532631875"/>
    <trip id="veh42" type="veh_passenger" depart="340.09" departLane="best" from="449991649#0" to="295124094#0"/>
    <trip id="veh44" type="veh_passenger" depart="356.29" departLane="best" from="1112801410#4" to="273229615"/>
    <trip id="veh45" type="veh_passenger" depart="364.39" departLane="best" departSpeed="max" from="294085157#0" to="884705757#1"/>
    <trip id="veh46" type="veh_passenger" depart="372.48" departLane="best" from="579981379#0" to="20475367#0"/>
    <trip id="veh47" type="veh_passenger" depart="380.58" departLane="best" from="803424580#0" to="68506253#0"/>
    <trip id="veh48" type="veh_passenger" depart="388.68" departLane="best" departSpeed="max" from="18833661" to="478725549#0"/>
    <trip id="veh50" type="veh_passenger" depart="404.87" departLane="best" from="519375850#0" to="295124094#0"/>
    <trip id="veh51" type="veh_passenger" depart="412.97" departLane="best" from="532570624#0" to="295124094#0"/>
    <trip id="veh52" type="veh_passenger" depart="421.07" departLane="best" departSpeed="max" from="-1112888042#1" to="20475905#0"/>
    <trip id="veh53" type="veh_passenger" depart="429.17" departLane="best" from="-20475892" to="8380822#0"/>
    <trip id="veh54" type="veh_passenger" depart="437.26" departLane="best" from="579981379#0" to="550620361"/>
    <trip id="veh56" type="veh_passenger" depart="453.46" departLane="best" from="111253717#0" to="545084605"/>
    <trip id="veh57" type="veh_passenger" depart="461.56" departLane="best" from="525588035#0" to="1144052331#0"/>
    <trip id="veh58" type="veh_passenger" depart="469.65" departLane="best" departSpeed="max" from="294085157#0" to="295215809#0"/>
    <trip id="veh59" type="veh_passenger" depart="477.75" departLane="best" departSpeed="max" from="293858828#0" to="1235264094#0"/>
    <trip id="veh61" type="veh_passenger" depart="493.95" departLane="best" from="-962829744" to="18522669#0"/>
    <trip id="veh62" type="veh_passenger" depart="502.04" departLane="best" from="525588035#0" to="483469232#0"/>
    <trip id="veh63" type="veh_passenger" depart="510.14" departLane="best" departSpeed="max" from="293858828#0" to="295124094#0"/>
    <trip id="veh65" type="veh_passenger" depart="526.34" departLane="best" from="237522641#0" to="32065149"/>
    <trip id="veh67" type="veh_passenger" depart="542.53" departLane="best" from="1112801401#0" to="449991649#0"/>
    <trip id="veh68" type="veh_passenger" depart="550.63" departLane="best" from="126302004" to="803424596"/>
    <trip id="veh69" type="veh_passenger" depart="558.73" departLane="best" from="550620361" to="612296800"/>
    <trip id="veh70" type="veh_passenger" depart="566.82" departLane="best" from="1330414891" to="491443474#0"/>
    <trip id="veh71" type="veh_passenger" depart="574.92" departLane="best" departSpeed="max" from="1235264095#0" to="1157644013"/>
    <trip id="veh72" type="veh_passenger" depart="583.02" departLane="best" departSpeed="max" from="8380852#0" to="304693491#0"/>
    <trip id="veh74" type="veh_passenger" depart="599.21" departLane="best" from="542963106#0" to="1213170282"/>
    <trip id="veh75" type="veh_passenger" depart="607.31" departLane="best" departSpeed="max" from="1112801410#0" to="251733667#0"/>
    <trip id="veh77" type="veh_passenger" depart="623.50" departLane="best" departSpeed="max" from="483469781#0" to="491443474#0"/>
    <trip id="veh78" type="veh_passenger" depart="631.60" departLane="best" from="908375888" to="1065887038"/>
    <trip id="veh79" type="veh_passenger" depart="639.70" departLane="best" from="550620361" to="126301386#0"/>
    <trip id="veh82" type="veh_passenger" depart="663.99" departLane="best" departSpeed="max" from="294085157#0" to="675305861#0"/>
    <trip id="veh83" type="veh_passenger" depart="672.09" departLane="best" departSpeed="max" from="328020777#0" to="-293858828#2"/>
    <trip id="veh85" type="veh_passenger" depart="688.28" departLane="best" departSpeed="max" from="294085157#0" to="1235264094#0"/>
    <trip id="veh86" type="veh_passenger" depart="696.38" departLane="best" from="238326403#0" to="315739558#0"/>
    <trip id="veh87" type="veh_passenger" depart="704.48" departLane="best" departSpeed="max" from="238324885#0" to="-908375889#1"/>
    <trip id="veh89" type="veh_passenger" depart="720.67" departLane="best" departSpeed="max" from="294085157#0" to="20042722#0"/>
    <trip id="veh90" type="veh_passenger" depart="728.77" departLane="best" from="8380852#2" to="922450172"/>
    <trip id="veh91" type="veh_passenger" depart="736.87" departLane="best" departSpeed="max" from="328020777#0" to="532631875"/>
    <trip id="veh92" type="veh_passenger" depart="744.97" departLane="best" from="1205958254" to="440369835#0"/>
    <trip id="veh93" type="veh_passenger" depart="753.06" departLane="best" from="880144105" to="32065149"/>
    <trip id="veh95" type="veh_passenger" depart="769.26" departLane="best" from="1205958254" to="20475367#0"/>
    <trip id="veh96" type="veh_passenger" depart="777.36" departLane="best" departSpeed="max" from="1112801410#0" to="1213170279"/>
    <trip id="veh97" type="veh_passenger" depart="785.45" departLane="best" from="328020785#0" to="511211614#0"/>
    <trip id="veh99" type="veh_passenger" depart="801.65" departLane="best" from="675305861#0" to="126301385#0"/>
    <trip id="veh100" type="veh_passenger" depart="809.75" departLane="best" from="328020785#0" to="44029116#0"/>
    <trip id="veh102" type="veh_passenger" depart="825.94" departLane="best" from="1235264094#0" to="532570624#0"/>
    <trip id="veh103" type="veh_passenger" depart="834.04" departLane="best" from="1330414891" to="237725943#0"/>
    <trip id="veh104" type="veh_passenger" depart="842.14" departLane="best" departSpeed="max" from="449991630" to="140001534"/>
    <trip id="veh105" type="veh_passenger" depart="850.23" departLane="best" from="20045755#0" to="545084604#0"/>
    <trip id="veh106" type="veh_passenger" depart="858.33" departLane="best" from="1112801401#0" to="293858827#0"/>
    <trip id="veh107" type="veh_passenger" depart="866.43" departLane="best" from="1112801401#0" to="1235264094#0"/>
    <trip id="veh109" type="veh_passenger" depart="882.62" departLane="best" from="601810762#0" to="68506265#0"/>
    <trip id="veh110" type="veh_passenger" depart="890.72" departLane="best" from="545937948#0" to="918410082#0"/>
    <trip id="veh111" type="veh_passenger" depart="898.82" departLane="best" departSpeed="max" from="330913952#0" to="-908375889#1"/>
    <trip id="veh112" type="veh_passenger" depart="906.92" departLane="best" departSpeed="max" from="449991630" to="-1330414891"/>
    <trip id="veh115" type="veh_passenger" depart="931.21" departLane="best" departSpeed="max" from="1112801410#0" to="295263589#0"/>
    <trip id="veh119" type="veh_passenger" depart="963.60" departLane="best" from="295215809#0" to="803424596"/>
    <trip id="veh120" type="veh_passenger" depart="971.70" departLane="best" from="545937949#0" to="-962829744"/>
    <trip id="veh121" type="veh_passenger" depart="979.79" departLane="best" departSpeed="max" from="293858828#0" to="1353407053#0"/>
    <trip id="veh122" type="veh_passenger" depart="987.89" departLane="best" departSpeed="max" from="-1112888042#1" to="545084605"/>
    <trip id="veh123" type="veh_passenger" depart="995.99" departLane="best" from="44027589#0" to="126304603#0"/>
    <trip id="veh124" type="veh_passenger" depart="1004.09" departLane="best" from="511211614#0" to="295215809#0"/>
    <trip id="veh125" type="veh_passenger" depart="1012.18" departLane="best" departSpeed="max" from="293858828#0" to="-1330414891"/>
    <trip id="veh127" type="veh_passenger" depart="1028.38" departLane="best" from="20475367#0" to="295124094#0"/>
    <trip id="veh128" type="veh_passenger" depart="1036.48" departLane="best" from="545937948#0" to="32065149"/>
    <trip id="veh129" type="veh_passenger" depart="1044.57" departLane="best" departSpeed="max" from="11680101#0" to="1144052331#0"/>
    <trip id="veh130" type="veh_passenger" depart="1052.67" departLane="best" from="20042722#0" to="803424596"/>
    <trip id="veh131" type="veh_passenger" depart="1060.77" departLane="best" from="532696011#0" to="675305861#0"/>
    <trip id="veh134" type="veh_passenger" depart="1085.06" departLane="best" from="248565672#0" to="440369835#0"/>
    <trip id="veh135" type="veh_passenger" depart="1093.16" departLane="best" from="1205958254" to="8380830#0"/>
    <trip id="veh136" type="veh_passenger" depart="1101.26" departLane="best" from="553772888#0" to="908375882"/>
    <trip id="veh139" type="veh_passenger" depart="1125.55" departLane="best" departSpeed="max" from="237506950#0" to="8380830#0"/>
    <trip id="veh140" type="veh_passenger" depart="1133.65" departLane="best" from="532696011#0" to="675305862#0"/>
    <trip id="veh142" type="veh_passenger" depart="1149.84" departLane="best" departSpeed="max" from="294085157#0" to="140001534"/>
    <trip id="veh143" type="veh_passenger" depart="1157.94" departLane="best" from="315739558#0" to="1214315730"/>
    <trip id="veh144" type="veh_passenger" depart="1166.04" departLane="best" departSpeed="max" from="237506950#0" to="675305862#0"/>
    <trip id="veh145" type="veh_passenger" depart="1174.13" departLane="best" from="44029116#0" to="237910178#0"/>
    <trip id="veh146" type="veh_passenger" depart="1182.23" departLane="best" from="908375883#0" to="295124094#0"/>
    <trip id="veh149" type="veh_passenger" depart="1206.52" departLane="best" from="1112801410#4" to="273229615"/>
    <trip id="veh150" type="veh_passenger" depart="1214.62" departLane="best" departSpeed="max" from="483469781#0" to="18522669#0"/>
    <trip id="veh151" type="veh_passenger" depart="1222.72" departLane="best" departSpeed="max" from="330913952#0" to="295124094#0"/>
    <trip id="veh152" type="veh_passenger" depart="1230.81" departLane="best" departSpeed="max" from="238324885#0" to="316789524#0"/>
    <trip id="veh154" type="veh_passenger" depart="1247.01" departLane="best" departSpeed="max" from="-1112888042#1" to="8380822#0"/>
    <trip id="veh155" type="veh_passenger" depart="1255.11" departLane="best" from="304693491#0" to="532631875"/>
    <trip id="veh156" type="veh_passenger" depart="1263.20" departLane="best" from="511211614#0" to="491443474#0"/>
    <trip id="veh157" type="veh_passenger" depart="1271.30" departLane="best" from="238324874#0" to="612296800"/>
    <trip id="veh158" type="veh_passenger" depart="1279.40" departLane="best" departSpeed="max" from="449991630" to="20042722#0"/>
    <trip id="veh159" type="veh_passenger" depart="1287.50" departLane="best" departSpeed="max" from="483469781#0" to="140001534"/>
    <trip id="veh160" type="veh_passenger" depart="1295.59" departLane="best" from="20042722#0" to="237910184"/>
    <trip id="veh161" type="veh_passenger" depart="1303.69" departLane="best" from="238326403#0" to="140001530#0"/>
    <trip id="veh163" type="veh_passenger" depart="1319.89" departLane="best" departSpeed="max" from="8380852#0" to="511211614#0"/>
    <trip id="veh164" type="veh_passenger" depart="1327.98" departLane="best" departSpeed="max" from="18833661" to="295215809#0"/>
    <trip id="veh165" type="veh_passenger" depart="1336.08" departLane="best" departSpeed="max" from="-1112888042#1" to="1360091609#0"/>
    <trip id="veh166" type="veh_passenger" depart="1344.18" departLane="best" departSpeed="max" from="293858828#0" to="32065149"/>
    <trip id="veh168" type="veh_passenger" depart="1360.37" departLane="best" departSpeed="max" from="294085157#0" to="1235264094#0"/>
    <trip id="veh169" type="veh_passenger" depart="1368.47" departLane="best" departSpeed="max" from="294085157#0" to="803424596"/>
    <trip id="veh172" type="veh_passenger" depart="1392.76" departLane="best" from="545718428#0" to="545084604#0"/>
    <trip id="veh173" type="veh_passenger" depart="1400.86" departLane="best" departSpeed="max" from="449991630" to="12373020#0"/>
    <trip id="veh174" type="veh_passenger" depart="1408.96" departLane="best" departSpeed="max" from="1232210089#0" to="-293858828#2"/>
    <trip id="veh176" type="veh_passenger" depart="1425.15" departLane="best" from="547249781#0" to="-893745919#2"/>
    <trip id="veh177" type="veh_passenger" depart="1433.25" departLane="best" from="251733667#0" to="449991649#0"/>
    <trip id="veh178" type="veh_passenger" depart="1441.35" departLane="best" from="295263589#0" to="12373020#0"/>
    <trip id="veh179" type="veh_passenger" depart="1449.45" departLane="best" departSpeed="max" from="449991630" to="-1330414891"/>
    <trip id="veh180" type="veh_passenger" depart="1457.54" departLane="best" departSpeed="max" from="1112801410#0" to="20042722#0"/>
    <trip id="veh181" type="veh_passenger" depart="1465.64" departLane="best" from="1214315734" to="884705757#1"/>
    <trip id="veh182" type="veh_passenger" depart="1473.74" departLane="best" departSpeed="max" from="295281481#0" to="-293858828#2"/>
    <trip id="veh184" type="veh_passenger" depart="1489.93" departLane="best" departSpeed="max" from="294085157#0" to="545937948#0"/>
    <trip id="veh185" type="veh_passenger" depart="1498.03" departLane="best" from="328020785#0" to="880144105"/>
    <trip id="veh186" type="veh_passenger" depart="1506.13" departLane="best" from="675305862#0" to="423231443#0"/>
    <trip id="veh188" type="veh_passenger" depart="1522.32" departLane="best" from="68506253#0" to="542963106#0"/>
    <trip id="veh189" type="veh_passenger" depart="1530.42" departLane="best" departSpeed="max" from="294085157#0" to="126302005"/>
    <trip id="veh191" type="veh_passenger" depart="1546.62" departLane="best" from="525588035#0" to="295124094#0"/>
    <trip id="veh192" type="veh_passenger" depart="1554.71" departLane="best" departSpeed="max" from="330913954#0" to="1353407053#0"/>
    <trip id="veh193" type="veh_passenger" depart="1562.81" departLane="best" from="140001530#0" to="-185957649#1"/>
    <trip id="veh194" type="veh_passenger" depart="1570.91" departLane="best" from="304693491#0" to="1157644014#0"/>
    <trip id="veh196" type="veh_passenger" depart="1587.10" departLane="best" from="248565672#0" to="295124094#0"/>
    <trip id="veh198" type="veh_passenger" depart="1603.30" departLane="best" from="293858827#0" to="803424596"/>
    <trip id="veh200" type="veh_passenger" depart="1619.49" departLane="best" departSpeed="max" from="238324885#0" to="-1330414891"/>
    <trip id="veh201" type="veh_passenger" depart="1627.59" departLane="best" from="237525159#0" to="545084605"/>
    <trip id="veh204" type="veh_passenger" depart="1651.88" departLane="best" from="126301386#0" to="12373020#0"/>
    <trip id="veh205" type="veh_passenger" depart="1659.98" departLane="best" from="237522641#0" to="584532229"/>
    <trip id="veh207" type="veh_passenger" depart="1676.18" departLane="best" departSpeed="max" from="294085157#0" to="1144052331#0"/>
    <trip id="veh208" type="veh_passenger" depart="1684.27" departLane="best" departSpeed="max" from="330913954#0" to="-293858828#2"/>
    <trip id="veh209" type="veh_passenger" depart="1692.37" departLane="best" departSpeed="max" from="238324885#0" to="304693484#0"/>
    <trip id="veh212" type="veh_passenger" depart="1716.66" departLane="best" from="-922450172" to="237725943#0"/>
    <trip id="veh213" type="veh_passenger" depart="1724.76" departLane="best" departSpeed="max" from="1235264095#0" to="20042722#0"/>
    <trip id="veh214" type="veh_passenger" depart="1732.86" departLane="best" from="519375850#0" to="237725943#0"/>
    <trip id="veh215" type="veh_passenger" depart="1740.96" departLane="best" from="519375847#0" to="550620361"/>
    <trip id="veh217" type="veh_passenger" depart="1757.15" departLane="best" from="-20475892" to="295124094#0"/>
    <trip id="veh218" type="veh_passenger" depart="1765.25" departLane="best" departSpeed="max" from="8380852#0" to="1214315734"/>
    <trip id="veh221" type="veh_passenger" depart="1789.54" departLane="best" departSpeed="max" from="328020777#0" to="-1235276476"/>
    <trip id="veh225" type="veh_passenger" depart="1821.93" departLane="best" from="1112801410#4" to="-293858828#2"/>
    <trip id="veh226" type="veh_passenger" depart="1830.03" departLane="best" from="8380852#2" to="511211618#0"/>
    <trip id="veh227" type="veh_passenger" depart="1838.12" departLane="best" departSpeed="max" from="483469781#0" to="-908375883#3"/>
    <trip id="veh228" type="veh_passenger" depart="1846.22" departLane="best" from="478725549#0" to="449991649#0"/>
    <trip id="veh229" type="veh_passenger" depart="1854.32" departLane="best" departSpeed="max" from="1112801410#0" to="545084605"/>
    <trip id="veh231" type="veh_passenger" depart="1870.51" departLane="best" departSpeed="max" from="293858828#0" to="237725943#0"/>
    <trip id="veh232" type="veh_passenger" depart="1878.61" departLane="best" departSpeed="max" from="295281481#0" to="20475367#0"/>
    <trip id="veh233" type="veh_passenger" depart="1886.71" departLane="best" departSpeed="max" from="1112801410#0" to="-893745919#2"/>
    <trip id="veh237" type="veh_passenger" depart="1919.10" departLane="best" from="545932590#0" to="-908375889#1"/>
    <trip id="veh238" type="veh_passenger" depart="1927.20" departLane="best" from="601810762#0" to="12373020#0"/>
    <trip id="veh239" type="veh_passenger" depart="1935.29" departLane="best" departSpeed="max" from="294085157#0" to="423231443#0"/>
    <trip id="veh240" type="veh_passenger" depart="1943.39" departLane="best" departSpeed="max" from="238324885#0" to="-293858828#2"/>
    <trip id="veh241" type="veh_passenger" depart="1951.49" departLane="best" from="547249781#0" to="1206386429"/>
    <trip id="veh242" type="veh_passenger" depart="1959.59" departLane="best" departSpeed="max" from="1235264095#0" to="545932590#0"/>
    <trip id="veh244" type="veh_passenger" depart="1975.78" departLane="best" departSpeed="max" from="1112801410#0" to="532631875"/>
    <trip id="veh245" type="veh_passenger" depart="1983.88" departLane="best" from="295215809#0" to="545084605"/>
    <trip id="veh246" type="veh_passenger" depart="1991.98" departLane="best" from="478725549#0" to="483469231#0"/>
    <trip id="veh247" type="veh_passenger" depart="2000.07" departLane="best" from="295215809#0" to="545718429#0"/>
    <trip id="veh248" type="veh_passenger" depart="2008.17" departLane="best" departSpeed="max" from="1112801410#0" to="12373020#0"/>
    <trip id="veh249" type="veh_passenger" depart="2016.27" departLane="best" from="478725549#0" to="140001534"/>
    <trip id="veh251" type="veh_passenger" depart="2032.46" departLane="best" departSpeed="max" from="295281481#0" to="20042722#0"/>
    <trip id="veh255" type="veh_passenger" depart="2064.85" departLane="best" from="304693491#0" to="545084605"/>
    <trip id="veh256" type="veh_passenger" depart="2072.95" departLane="best" departSpeed="max" from="1232210089#0" to="1235264094#0"/>
    <trip id="veh257" type="veh_passenger" depart="2081.05" departLane="best" departSpeed="max" from="294085157#0" to="532631875"/>
    <trip id="veh258" type="veh_passenger" depart="2089.15" departLane="best" from="903025861#0" to="295124094#0"/>
    <trip id="veh259" type="veh_passenger" depart="2097.24" departLane="best" departSpeed="max" from="1232210089#0" to="12373020#0"/>
    <trip id="veh263" type="veh_passenger" depart="2129.63" departLane="best" departSpeed="max" from="294085157#0" to="273229615"/>
    <trip id="veh264" type="veh_passenger" depart="2137.73" departLane="best" departSpeed="max" from="1232210089#0" to="-293858828#2"/>
    <trip id="veh267" type="veh_passenger" depart="2162.02" departLane="best" from="1112801401#0" to="449991649#0"/>
    <trip id="veh269" type="veh_passenger" depart="2178.22" departLane="best" departSpeed="max" from="328020777#0" to="140001534"/>
    <trip id="veh271" type="veh_passenger" depart="2194.41" departLane="best" departSpeed="max" from="295281481#0" to="273229615"/>
    <trip id="veh272" type="veh_passenger" depart="2202.51" departLane="best" departSpeed="max" from="294085157#0" to="612296800"/>
    <trip id="veh273" type="veh_passenger" depart="2210.61" departLane="best" from="908375892" to="140001534"/>
    <trip id="veh274" type="veh_passenger" depart="2218.71" departLane="best" departSpeed="max" from="330913954#0" to="423231443#0"/>
    <trip id="veh275" type="veh_passenger" depart="2226.80" departLane="best" from="491443474#0" to="880144105"/>
    <trip id="veh277" type="veh_passenger" depart="2243.00" departLane="best" from="1214315734" to="-908375883#3"/>
    <trip id="veh278" type="veh_passenger" depart="2251.10" departLane="best" departSpeed="max" from="-1112888042#1" to="273229615"/>
    <trip id="veh279" type="veh_passenger" depart="2259.19" departLane="best" from="328020781#0" to="140001504#0"/>
    <trip id="veh281" type="veh_passenger" depart="2275.39" departLane="best" from="4744948#0" to="8380812#0"/>
    <trip id="veh282" type="veh_passenger" depart="2283.49" departLane="best" from="532696001#0" to="440369835#0"/>
    <trip id="veh283" type="veh_passenger" depart="2291.58" departLane="best" departSpeed="max" from="293858828#0" to="295124094#0"/>
    <trip id="veh284" type="veh_passenger" depart="2299.68" departLane="best" from="140001530#0" to="803424596"/>
    <trip id="veh285" type="veh_passenger" depart="2307.78" departLane="best" from="545932590#0" to="612296800"/>
    <trip id="veh286" type="veh_passenger" depart="2315.88" departLane="best" from="237910178#0" to="304693491#0"/>
    <trip id="veh289" type="veh_passenger" depart="2340.17" departLane="best" from="295263589#0" to="-908375883#3"/>
    <trip id="veh290" type="veh_passenger" depart="2348.26" departLane="best" from="908375883#0" to="251733667#0"/>
    <trip id="veh291" type="veh_passenger" depart="2356.36" departLane="best" departSpeed="max" from="1112801410#0" to="-893745919#2"/>
    <trip id="veh292" type="veh_passenger" depart="2364.46" departLane="best" from="545937948#0" to="316789524#0"/>
    <trip id="veh293" type="veh_passenger" depart="2372.56" departLane="best" departSpeed="max" from="8380852#0" to="922450172"/>
    <trip id="veh295" type="veh_passenger" depart="2388.75" departLane="best" from="908375883#0" to="545084605"/>
    <trip id="veh296" type="veh_passenger" depart="2396.85" departLane="best" departSpeed="max" from="294085157#0" to="483469232#0"/>
    <trip id="veh297" type="veh_passenger" depart="2404.95" departLane="best" departSpeed="max" from="328020777#0" to="4744948#0"/>
    <trip id="veh298" type="veh_passenger" depart="2413.04" departLane="best" from="295215809#0" to="-962829744"/>
    <trip id="veh299" type="veh_passenger" depart="2421.14" departLane="best" from="237525159#0" to="20045755#0"/>
    <trip id="veh301" type="veh_passenger" depart="2437.34" departLane="best" departSpeed="max" from="237506950#0" to="519375847#0"/>
    <trip id="veh302" type="veh_passenger" depart="2445.43" departLane="best" from="545084610#0" to="295215809#0"/>
    <trip id="veh303" type="veh_passenger" depart="2453.53" departLane="best" departSpeed="max" from="294085157#0" to="18522669#0"/>
    <trip id="veh304" type="veh_passenger" depart="2461.63" departLane="best" from="20475367#0" to="908375882"/>
    <trip id="veh305" type="veh_passenger" depart="2469.73" departLane="best" from="248565672#0" to="295124094#0"/>
    <trip id="veh307" type="veh_passenger" depart="2485.92" departLane="best" departSpeed="max" from="1232210089#0" to="237525159#0"/>
    <trip id="veh308" type="veh_passenger" depart="2494.02" departLane="best" from="519375847#0" to="440369835#0"/>
    <trip id="veh310" type="veh_passenger" depart="2510.21" departLane="best" departSpeed="max" from="328020777#0" to="140001530#0"/>
    <trip id="veh313" type="veh_passenger" depart="2534.51" departLane="best" departSpeed="max" from="330913952#0" to="12373020#0"/>
    <trip id="veh314" type="veh_passenger" depart="2542.60" departLane="best" from="1205958254" to="295215809#0"/>
    <trip id="veh315" type="veh_passenger" depart="2550.70" departLane="best" departSpeed="max" from="328020777#0" to="1017861008#0"/>
    <trip id="veh316" type="veh_passenger" depart="2558.80" departLane="best" from="525588035#0" to="803424596"/>
    <trip id="veh320" type="veh_passenger" depart="2591.19" departLane="best" from="140001530#0" to="550620361"/>
    <trip id="veh321" type="veh_passenger" depart="2599.29" departLane="best" from="908375883#0" to="12373020#0"/>
    <trip id="veh322" type="veh_passenger" depart="2607.38" departLane="best" departSpeed="max" from="328020777#0" to="237725943#0"/>
    <trip id="veh324" type="veh_passenger" depart="2623.58" departLane="best" from="140001534" to="545718429#0"/>
    <trip id="veh325" type="veh_passenger" depart="2631.68" departLane="best" from="251733667#0" to="8380830#0"/>
    <trip id="veh326" type="veh_passenger" depart="2639.77" departLane="best" departSpeed="max" from="295281481#0" to="547249781#0"/>
    <trip id="veh327" type="veh_passenger" depart="2647.87" departLane="best" from="140001534" to="440369835#0"/>
    <trip id="veh329" type="veh_passenger" depart="2664.07" departLane="best" from="304693491#0" to="20475367#0"/>
    <trip id="veh330" type="veh_passenger" depart="2672.16" departLane="best" departSpeed="max" from="328020777#0" to="295124094#0"/>
    <trip id="veh331" type="veh_passenger" depart="2680.26" departLane="best" departSpeed="max" from="294085157#0" to="-185957649#1"/>
    <trip id="veh332" type="veh_passenger" depart="2688.36" departLane="best" from="532570624#0" to="-293858828#2"/>
    <trip id="veh333" type="veh_passenger" depart="2696.46" departLane="best" from="511211614#0" to="526129884"/>
    <trip id="veh335" type="veh_passenger" depart="2712.65" departLane="best" departSpeed="max" from="449991630" to="547249781#0"/>
    <trip id="veh338" type="veh_passenger" depart="2736.94" departLane="best" departSpeed="max" from="295281481#0" to="293858827#0"/>