<?xml version='1.0' encoding='UTF-8'?>
<net xmlns:xsi="http://www.w3.org/2001/XMLSchema-instance" version="1.20" junctionCornerDetail="5" limitTurnSpeed="5.50" xsi:noNamespaceSchemaLocation="http://sumo.dlr.de/xsd/net_file.xsd">

    <location netOffset="-429773.11,-4581643.92" convBoundary="0.00,0.00,1616.60,937.61" origBoundary="2.160035,41.383340,2.179413,41.391749" projParameter="+proj=utm +zone=31 +ellps=WGS84 +datum=WGS84 +units=m +no_defs" />

    <type id="highway.footway" priority="1" numLanes="1" speed="2.78" allow="pedestrian" oneway="1" width="2.00" />
    <type id="highway.living_street" priority="2" numLanes="1" speed="2.78" disallow="tram rail_urban rail rail_electric rail_fast ship container cable_car subway aircraft wheelchair scooter drone" oneway="0" />
    <type id="highway.pedestrian" priority="1" numLanes="1" speed="2.78" allow="pedestrian" oneway="1" width="2.00" />
    <type id="highway.primary" priority="12" numLanes="2" speed="27.78" disallow="tram rail_urban rail rail_electric rail_fast ship container cable_car subway aircraft wheelchair scooter drone" oneway="0" />
    <type id="highway.primary_link" priority="7" numLanes="1" speed="22.22" disallow="tram rail_urban rail rail_electric rail_fast ship container cable_car subway aircraft wheelchair scooter drone" oneway="0" />
    <type id="highway.residential" priority="3" numLanes="1" speed="13.89" disallow="tram rail_urban rail rail_electric rail_fast ship container cable_car subway aircraft wheelchair scooter drone" oneway="0" />
    <type id="highway.secondary" priority="11" numLanes="1" speed="27.78" disallow="tram rail_urban rail rail_electric rail_fast ship container cable_car subway aircraft wheelchair scooter drone" oneway="0" />
    <type id="highway.secondary_link" priority="6" numLanes="1" speed="22.22" disallow="tram rail_urban rail rail_electric rail_fast ship container cable_car subway aircraft wheelchair scooter drone" oneway="0" />
    <type id="highway.service" priority="1" numLanes="1" speed="5.56" allow="pedestrian delivery bicycle" oneway="0" />
    <type id="highway.steps" priority="1" numLanes="1" speed="1.39" allow="pedestrian" oneway="1" width="2.00" />
    <type id="highway.tertiary" priority="10" numLanes="1" speed="22.22" disallow="tram rail_urban rail rail_electric rail_fast ship container cable_car subway aircraft wheelchair scooter drone" oneway="0" />
    <type id="railway.subway" priority="18" numLanes="1" speed="27.78" allow="subway" oneway="1" />

    <edge id=":104431832_0" function="internal">
        <lane id=":104431832_0_0" index="0" disallow="tram rail_urban rail rail_electric rail_fast ship container cable_car subway aircraft wheelchair scooter drone" speed="7.73" length="13.31" width="4.00" shape="820.43,244.70 819.59,247.58 820.22,250.27 822.32,252.78 825.91,255.10" />
        <lane id=":104431832_0_1" index="1" disallow="tram rail_urban rail rail_electric rail_fast ship container cable_car subway aircraft wheelchair scooter drone" speed="8.98" length="19.15" width="4.00" shape="817.51,243.36 815.84,247.71 816.37,251.71 819.10,255.35 824.02,258.63" />
    </edge>
    <edge id=":104431832_2" function="internal">
        <lane id=":104431832_2_0" index="0" disallow="tram rail_urban rail rail_electric rail_fast ship container cable_car subway aircraft wheelchair scooter drone" speed="11.11" length="17.71" width="4.00" shape="808.14,251.18 811.51,252.51 814.92,254.04 818.91,256.01 824.02,258.63" />
        <lane id=":104431832_2_1" index="1" disallow="tram rail_urban rail rail_electric rail_fast ship container cable_car subway aircraft wheelchair scooter drone" speed="11.11" length="17.71" width="4.00" shape="808.14,251.18 811.20,253.05 813.94,255.79 817.28,258.97 822.14,262.15" />
    </edge>
    <edge id=":11178765233_0" function="internal">
        <lane id=":11178765233_0_0" index="0" disallow="tram rail_urban rail rail_electric rail_fast ship container cable_car subway aircraft wheelchair scooter drone" speed="8.33" length="4.24" shape="1386.76,231.93 1390.93,232.32" />
        <lane id=":11178765233_0_1" index="1" disallow="tram rail_urban rail rail_electric rail_fast ship container cable_car subway aircraft wheelchair scooter drone" speed="8.33" length="4.24" shape="1388.94,234.27 1393.24,234.53" />
    </edge>
    <edge id=":11178765233_2" function="internal">
        <lane id=":11178765233_2_0" index="0" disallow="tram rail_urban rail rail_electric rail_fast ship container cable_car subway aircraft wheelchair scooter drone" speed="3.65" length="4.67" shape="1388.94,234.27 1390.37,234.04 1391.20,234.36 1391.46,235.21 1391.12,236.62" />
    </edge>
    <edge id=":11178780903_0" function="internal">
        <lane id=":11178780903_0_0" index="0" allow="pedestrian delivery bicycle" speed="5.21" length="5.23" shape="1399.76,218.57 1400.99,219.42 1402.17,219.72 1403.30,219.47 1404.39,218.67" />
    </edge>
    <edge id=":11178780903_1" function="internal">
        <lane id=":11178780903_1_0" index="0" allow="pedestrian delivery bicycle" speed="4.98" length="5.07" shape="1397.72,225.33 1398.57,224.22 1398.83,223.11 1398.52,222.02 1397.62,220.95" />
    </edge>
    <edge id=":11178780903_2" function="internal">
        <lane id=":11178780903_2_0" index="0" disallow="tram rail_urban rail rail_electric rail_fast ship container cable_car subway aircraft wheelchair scooter drone" speed="8.33" length="9.45" shape="1397.72,225.33 1404.39,218.67" />
        <lane id=":11178780903_2_1" index="1" disallow="tram rail_urban rail rail_electric rail_fast ship container cable_car subway aircraft wheelchair scooter drone" speed="8.33" length="9.45" shape="1399.97,227.61 1406.67,220.91" />
    </edge>
    <edge id=":112398908_0" function="internal">
        <lane id=":112398908_0_0" index="0" disallow="tram rail_urban rail rail_electric rail_fast ship container cable_car subway aircraft wheelchair scooter drone" speed="8.33" length="0.73" shape="516.26,131.24 516.05,131.30 515.91,131.33 515.76,131.33 515.55,131.30" />
    </edge>
    <edge id=":112399403_0" function="internal">
        <lane id=":112399403_0_0" index="0" disallow="tram rail_urban rail rail_electric rail_fast ship container cable_car subway aircraft wheelchair scooter drone" speed="12.42" length="11.80" shape="310.51,101.42 309.49,98.45 307.59,97.05 305.06,95.97 302.13,93.97" />
        <lane id=":112399403_0_1" index="1" disallow="tram rail_urban rail rail_electric rail_fast ship container cable_car subway aircraft wheelchair scooter drone" speed="13.89" length="15.16" shape="312.89,101.13 311.73,97.12 309.62,94.96 306.70,93.21 303.06,90.44" />
    </edge>
    <edge id=":112399403_2" function="internal">
        <lane id=":112399403_2_0" index="0" disallow="tram rail_urban rail rail_electric rail_fast ship container cable_car subway aircraft wheelchair scooter drone" speed="3.16" length="0.79" width="2.40" shape="312.89,101.13 313.24,100.42" />
    </edge>
    <edge id=":112399403_12" function="internal">
        <lane id=":112399403_12_0" index="0" disallow="tram rail_urban rail rail_electric rail_fast ship container cable_car subway aircraft wheelchair scooter drone" speed="3.16" length="2.72" width="2.40" shape="313.24,100.42 313.38,100.16 313.94,99.79 314.57,100.02 315.27,100.84" />
    </edge>
    <edge id=":112399403_3" function="internal">
        <lane id=":112399403_3_0" index="0" disallow="tram rail_urban rail rail_electric rail_fast ship container cable_car subway aircraft wheelchair scooter drone" speed="6.42" length="8.77" width="2.40" shape="324.51,94.00 322.30,94.63 320.81,95.88 320.06,97.76 320.04,100.26" />
        <lane id=":112399403_3_1" index="1" disallow="tram rail_urban rail rail_electric rail_fast ship container cable_car subway aircraft wheelchair scooter drone" speed="7.04" length="10.74" width="2.40" shape="324.51,94.00 321.26,94.76 319.03,96.10 317.83,98.03 317.65,100.55" />
        <lane id=":112399403_3_2" index="2" disallow="tram rail_urban rail rail_electric rail_fast ship container cable_car subway aircraft wheelchair scooter drone" speed="7.64" length="12.82" width="2.40" shape="324.51,94.00 320.21,94.88 317.24,96.32 315.59,98.30 315.27,100.84" />
    </edge>
    <edge id=":112399403_6" function="internal">
        <lane id=":112399403_6_0" index="0" disallow="tram rail_urban rail rail_electric rail_fast ship container cable_car subway aircraft wheelchair scooter drone" speed="11.11" length="22.48" shape="324.51,94.00 315.69,94.91 309.02,95.20 304.50,94.89 302.13,93.97" />
        <lane id=":112399403_6_1" index="1" disallow="tram rail_urban rail rail_electric rail_fast ship container cable_car subway aircraft wheelchair scooter drone" speed="11.11" length="22.48" shape="324.51,94.00 317.29,94.50 311.31,94.07 306.57,92.72 303.06,90.44" />
    </edge>
    <edge id=":112399403_8" function="internal">
        <lane id=":112399403_8_0" index="0" disallow="tram rail_urban rail rail_electric rail_fast ship container cable_car subway aircraft wheelchair scooter drone" speed="13.89" length="15.68" width="2.40" shape="312.46,86.00 313.72,89.20 316.07,91.99 318.51,95.35 320.04,100.26" />
        <lane id=":112399403_8_1" index="1" disallow="tram rail_urban rail rail_electric rail_fast ship container cable_car subway aircraft wheelchair scooter drone" speed="13.89" length="15.68" width="2.40" shape="312.46,86.00 313.35,89.29 314.90,92.27 316.52,95.74 317.65,100.55" />
        <lane id=":112399403_8_2" index="2" disallow="tram rail_urban rail rail_electric rail_fast ship container cable_car subway aircraft wheelchair scooter drone" speed="13.89" length="15.68" width="2.40" shape="312.46,86.00 315.27,100.84" />
    </edge>
    <edge id=":112399403_11" function="internal">
        <lane id=":112399403_11_0" index="0" disallow="tram rail_urban rail rail_electric rail_fast ship container cable_car subway aircraft wheelchair scooter drone" speed="7.88" length="7.90" shape="312.46,86.00 312.43,91.81 311.37,93.61" />
    </edge>
    <edge id=":112399403_13" function="internal">
        <lane id=":112399403_13_0" index="0" disallow="tram rail_urban rail rail_electric rail_fast ship container cable_car subway aircraft wheelchair scooter drone" speed="7.88" length="10.06" shape="311.37,93.61 310.85,94.49 307.73,94.03 303.06,90.44" />
    </edge>
    <edge id=":11240066167_0" function="internal">
        <lane id=":11240066167_0_0" index="0" disallow="tram rail_urban rail rail_electric rail_fast ship container cable_car subway aircraft wheelchair scooter drone" speed="8.33" length="12.69" width="14.00" shape="769.85,238.52 772.99,239.50 774.55,242.34 775.95,245.27 778.60,246.48" />
    </edge>
    <edge id=":11240066167_1" function="internal">
        <lane id=":11240066167_1_0" index="0" allow="bus bicycle" speed="3.82" length="5.11" width="3.50" shape="770.71,245.46 772.12,246.17 772.66,246.98 772.33,247.91 771.14,248.94" />
    </edge>
    <edge id=":11240086946_0" function="internal">
        <lane id=":11240086946_0_0" index="0" disallow="tram rail_urban rail rail_electric rail_fast ship container cable_car subway aircraft wheelchair scooter drone" speed="8.33" length="8.02" shape="1186.91,443.20 1181.21,448.83" />
    </edge>
    <edge id=":11240086946_1" function="internal">
        <lane id=":11240086946_1_0" index="0" disallow="tram rail_urban rail rail_electric rail_fast ship container cable_car subway aircraft wheelchair scooter drone" speed="8.33" length="8.38" shape="1178.90,446.61 1180.23,444.49 1180.52,442.61 1180.83,440.77 1182.27,438.76" />
        <lane id=":11240086946_1_1" index="1" disallow="tram rail_urban rail rail_electric rail_fast ship container cable_car subway aircraft wheelchair scooter drone" speed="8.33" length="8.38" shape="1178.90,446.61 1184.59,440.98" />
    </edge>
    <edge id=":11240086948_0" function="internal">
        <lane id=":11240086948_0_0" index="0" disallow="tram rail_urban rail rail_electric rail_fast ship container cable_car subway aircraft wheelchair scooter drone" speed="8.33" length="8.02" shape="1080.43,555.62 1074.89,561.42" />
    </edge>
    <edge id=":11240086948_1" function="internal">
        <lane id=":11240086948_1_0" index="0" disallow="tram rail_urban rail rail_electric rail_fast ship container cable_car subway aircraft wheelchair scooter drone" speed="8.33" length="8.37" shape="1072.59,559.19 1073.89,557.04 1074.16,555.18 1074.44,553.33 1075.78,551.22" />
        <lane id=":11240086948_1_1" index="1" disallow="tram rail_urban rail rail_electric rail_fast ship container cable_car subway aircraft wheelchair scooter drone" speed="8.33" length="8.37" shape="1072.59,559.19 1078.10,553.42" />
    </edge>
    <edge id=":112426103_0" function="internal">
        <lane id=":112426103_0_0" index="0" disallow="tram rail_urban rail rail_electric rail_fast ship container cable_car subway aircraft wheelchair scooter drone" speed="5.48" length="9.27" width="3.00" shape="319.13,195.17 318.47,192.41 317.27,191.17 315.52,191.47 313.23,193.30" />
        <lane id=":112426103_0_1" index="1" disallow="tram rail_urban rail rail_electric rail_fast ship container cable_car subway aircraft wheelchair scooter drone" speed="7.32" length="17.79" width="3.00" shape="322.31,194.83 321.05,189.54 318.74,187.20 315.37,187.80 310.96,191.33" />
    </edge>
    <edge id=":112426103_2" function="internal">
        <lane id=":112426103_2_0" index="0" disallow="tram rail_urban rail rail_electric rail_fast ship container cable_car subway aircraft wheelchair scooter drone" speed="13.89" length="17.72" width="2.40" shape="322.31,194.83 321.42,189.64 320.35,186.16 319.28,182.69 318.43,177.49" />
        <lane id=":112426103_2_1" index="1" disallow="tram rail_urban rail rail_electric rail_fast ship container cable_car subway aircraft wheelchair scooter drone" speed="13.89" length="17.72" width="2.40" shape="322.31,194.83 320.82,177.24" />
    </edge>
    <edge id=":112426103_4" function="internal">
        <lane id=":112426103_4_0" index="0" disallow="tram rail_urban rail rail_electric rail_fast ship container cable_car subway aircraft wheelchair scooter drone" speed="3.65" length="1.44" shape="322.31,194.83 322.97,193.55" />
    </edge>
    <edge id=":112426103_10" function="internal">
        <lane id=":112426103_10_0" index="0" disallow="tram rail_urban rail rail_electric rail_fast ship container cable_car subway aircraft wheelchair scooter drone" speed="3.65" length="3.23" shape="322.97,193.55 323.73,193.06 324.56,193.37 325.49,194.48" />
    </edge>
    <edge id=":112426103_5" function="internal">
        <lane id=":112426103_5_0" index="0" disallow="tram rail_urban rail rail_electric rail_fast ship container cable_car subway aircraft wheelchair scooter drone" speed="13.89" length="17.98" shape="327.98,176.51 328.67,194.13" />
        <lane id=":112426103_5_1" index="1" disallow="tram rail_urban rail rail_electric rail_fast ship container cable_car subway aircraft wheelchair scooter drone" speed="13.89" length="17.98" shape="327.98,176.51 327.84,181.85 326.71,185.49 325.59,189.14 325.49,194.48" />
    </edge>
    <edge id=":112426103_7" function="internal">
        <lane id=":112426103_7_0" index="0" disallow="tram rail_urban rail rail_electric rail_fast ship container cable_car subway aircraft wheelchair scooter drone" speed="13.74" length="5.58" width="3.00" shape="325.59,176.75 324.96,179.15 323.29,181.76" />
        <lane id=":112426103_7_1" index="1" disallow="tram rail_urban rail rail_electric rail_fast ship container cable_car subway aircraft wheelchair scooter drone" speed="13.09" length="0.85" width="3.00" shape="323.20,177.00 322.85,177.77" />
    </edge>
    <edge id=":112426103_9" function="internal">
        <lane id=":112426103_9_0" index="0" disallow="tram rail_urban rail rail_electric rail_fast ship container cable_car subway aircraft wheelchair scooter drone" speed="3.16" length="0.82" width="2.40" shape="323.20,177.00 322.82,177.72" />
    </edge>
    <edge id=":112426103_11" function="internal">
        <lane id=":112426103_11_0" index="0" disallow="tram rail_urban rail rail_electric rail_fast ship container cable_car subway aircraft wheelchair scooter drone" speed="13.74" length="15.33" width="3.00" shape="323.29,181.76 322.69,182.71 318.78,187.43 313.23,193.30" />
        <lane id=":112426103_11_1" index="0" disallow="tram rail_urban rail rail_electric rail_fast ship container cable_car subway aircraft wheelchair scooter drone" speed="13.09" length="18.09" width="3.00" shape="322.85,177.77 322.51,178.55 320.23,181.45 316.38,185.71 310.96,191.33" />
    </edge>
    <edge id=":112426103_12" function="internal">
        <lane id=":112426103_12_0" index="0" disallow="tram rail_urban rail rail_electric rail_fast ship container cable_car subway aircraft wheelchair scooter drone" speed="3.16" length="2.69" width="2.40" shape="322.82,177.72 322.70,177.95 322.13,178.31 321.51,178.08 320.82,177.24" />
    </edge>
    <edge id=":11250869666_0" function="internal">
        <lane id=":11250869666_0_0" index="0" allow="bus bicycle" speed="3.82" length="5.11" width="3.50" shape="635.67,265.63 634.26,264.94 633.71,264.13 634.02,263.20 635.20,262.16" />
    </edge>
    <edge id=":11250869666_1" function="internal">
        <lane id=":11250869666_1_0" index="0" disallow="tram rail_urban rail rail_electric rail_fast ship container cable_car subway aircraft wheelchair scooter drone" speed="8.33" length="10.31" width="3.50" shape="627.55,264.98 629.86,263.29 630.56,260.15 631.43,256.99 634.26,255.22" />
        <lane id=":11250869666_1_1" index="1" disallow="tram rail_urban rail rail_electric rail_fast ship container cable_car subway aircraft wheelchair scooter drone" speed="8.33" length="10.31" width="3.50" shape="627.55,264.98 630.00,263.82 631.14,261.84 632.28,259.86 634.73,258.69" />
        <lane id=":11250869666_1_2" index="2" disallow="tram rail_urban rail rail_electric rail_fast ship container cable_car subway aircraft wheelchair scooter drone" speed="8.33" length="10.31" width="3.50" shape="627.55,264.98 629.88,264.39 631.38,263.57 632.87,262.75 635.20,262.16" />
    </edge>
    <edge id=":11330758832_0" function="internal">
        <lane id=":11330758832_0_0" index="0" disallow="tram rail_urban rail rail_electric rail_fast ship container cable_car subway aircraft wheelchair scooter drone" speed="8.33" length="0.25" shape="1563.75,67.80 1563.69,67.75 1563.66,67.71 1563.62,67.68 1563.56,67.64" />
    </edge>
    <edge id=":11466476297_0" function="internal">
        <lane id=":11466476297_0_0" index="0" disallow="tram rail_urban rail rail_electric rail_fast ship container cable_car subway aircraft wheelchair scooter drone" speed="8.33" length="6.03" shape="608.12,552.59 606.90,553.90 606.05,554.82 605.38,555.83 604.67,557.46" />
    </edge>
    <edge id=":11466476297_1" function="internal">
        <lane id=":11466476297_1_0" index="0" disallow="tram rail_urban rail rail_electric rail_fast ship container cable_car subway aircraft wheelchair scooter drone" speed="3.65" length="1.44" shape="608.12,552.59 606.72,552.96" />
    </edge>
    <edge id=":11466476297_4" function="internal">
        <lane id=":11466476297_4_0" index="0" disallow="tram rail_urban rail rail_electric rail_fast ship container cable_car subway aircraft wheelchair scooter drone" speed="3.65" length="3.23" shape="606.72,552.96 605.86,552.73 605.52,551.90 605.71,550.47" />
    </edge>
    <edge id=":11466476297_2" function="internal">
        <lane id=":11466476297_2_0" index="0" disallow="tram rail_urban rail rail_electric rail_fast ship container cable_car subway aircraft wheelchair scooter drone" speed="7.76" length="3.99" shape="602.36,552.41 603.50,552.15 604.27,551.85 604.92,551.34 605.71,550.47" />
    </edge>
    <edge id=":11466476297_3" function="internal">
        <lane id=":11466476297_3_0" index="0" disallow="tram rail_urban rail rail_electric rail_fast ship container cable_car subway aircraft wheelchair scooter drone" speed="5.15" length="2.84" shape="602.36,552.41 604.22,552.38 604.97,553.01" />
    </edge>
    <edge id=":11466476297_5" function="internal">
        <lane id=":11466476297_5_0" index="0" disallow="tram rail_urban rail rail_electric rail_fast ship container cable_car subway aircraft wheelchair scooter drone" speed="5.15" length="4.67" shape="604.97,553.01 605.23,553.22 605.38,554.91 604.67,557.46" />
    </edge>
    <edge id=":12309556901_0" function="internal">
        <lane id=":12309556901_0_0" index="0" disallow="tram rail_urban rail rail_electric rail_fast ship container cable_car subway aircraft wheelchair scooter drone" speed="3.65" length="4.67" shape="922.09,697.67 921.79,696.26 922.06,695.41 922.90,695.11 924.32,695.37" />
    </edge>
    <edge id=":12309556901_1" function="internal">
        <lane id=":12309556901_1_0" index="0" disallow="tram rail_urban rail rail_electric rail_fast ship container cable_car subway aircraft wheelchair scooter drone" speed="8.33" length="8.00" shape="918.56,689.81 924.32,695.37" />
    </edge>
    <edge id=":1282870796_0" function="internal">
        <lane id=":1282870796_0_0" index="0" disallow="tram rail_urban rail rail_electric rail_fast ship container cable_car subway aircraft wheelchair scooter drone" speed="6.49" length="8.56" width="3.00" shape="302.92,213.23 300.99,211.97 299.08,211.61 297.19,212.14 295.32,213.56" />
        <lane id=":1282870796_0_1" index="1" disallow="tram rail_urban rail rail_electric rail_fast ship container cable_car subway aircraft wheelchair scooter drone" speed="7.95" length="13.34" width="3.00" shape="305.03,210.83 302.05,208.89 299.08,208.35 296.13,209.20 293.20,211.45" />
    </edge>
    <edge id=":1282870796_2" function="internal">
        <lane id=":1282870796_2_0" index="0" disallow="tram rail_urban rail rail_electric rail_fast ship container cable_car subway aircraft wheelchair scooter drone" speed="13.89" length="13.94" width="3.00" shape="303.99,202.67 301.26,205.77 299.66,208.12 298.06,210.47 295.32,213.56" />
        <lane id=":1282870796_2_1" index="1" disallow="tram rail_urban rail rail_electric rail_fast ship container cable_car subway aircraft wheelchair scooter drone" speed="13.89" length="13.94" width="3.00" shape="301.86,200.56 299.13,203.66 297.53,206.01 295.93,208.36 293.20,211.45" />
        <lane id=":1282870796_2_2" index="2" disallow="tram rail_urban rail rail_electric rail_fast ship container cable_car subway aircraft wheelchair scooter drone" speed="13.89" length="13.94" width="3.00" shape="301.86,200.56 298.80,203.33 296.47,204.95 294.13,206.58 291.07,209.34" />
    </edge>
    <edge id=":1282870801_0" function="internal">
        <lane id=":1282870801_0_0" index="0" disallow="tram rail_urban rail rail_electric rail_fast ship container cable_car subway aircraft wheelchair scooter drone" speed="13.89" length="26.02" shape="328.71,244.65 323.90,238.22 321.14,232.88 318.59,228.09 314.39,223.31" />
        <lane id=":1282870801_0_1" index="1" disallow="tram rail_urban rail rail_electric rail_fast ship container cable_car subway aircraft wheelchair scooter drone" speed="13.89" length="26.02" shape="330.94,242.63 326.05,236.09 323.26,230.62 320.70,225.73 316.51,220.91" />
    </edge>
    <edge id=":1282870801_2" function="internal">
        <lane id=":1282870801_2_0" index="0" disallow="tram rail_urban rail rail_electric rail_fast ship container cable_car subway aircraft wheelchair scooter drone" speed="13.89" length="26.05" shape="333.16,240.62 327.87,234.52 324.46,229.54 322.48,224.45 321.47,218.05" />
        <lane id=":1282870801_2_1" index="1" disallow="tram rail_urban rail rail_electric rail_fast ship container cable_car subway aircraft wheelchair scooter drone" speed="13.89" length="25.50" shape="333.16,240.62 328.44,234.50 326.11,229.26 325.17,223.88 324.62,217.34" />
    </edge>
    <edge id=":1282870801_4" function="internal">
        <lane id=":1282870801_4_0" index="0" disallow="tram rail_urban rail rail_electric rail_fast ship container cable_car subway aircraft wheelchair scooter drone" speed="3.53" length="1.35" width="3.00" shape="333.16,240.62 332.96,239.28" />
    </edge>
    <edge id=":1282870801_9" function="internal">
        <lane id=":1282870801_9_0" index="0" disallow="tram rail_urban rail rail_electric rail_fast ship container cable_car subway aircraft wheelchair scooter drone" speed="3.53" length="3.03" width="3.00" shape="332.96,239.28 333.27,238.50 334.08,238.28 335.39,238.61" />
    </edge>
    <edge id=":1282870801_5" function="internal">
        <lane id=":1282870801_5_0" index="0" disallow="tram rail_urban rail rail_electric rail_fast ship container cable_car subway aircraft wheelchair scooter drone" speed="13.89" length="23.10" width="3.00" shape="330.91,215.90 331.40,222.30 332.09,227.20 333.86,231.63 337.61,236.60" />
        <lane id=":1282870801_5_1" index="1" disallow="tram rail_urban rail rail_electric rail_fast ship container cable_car subway aircraft wheelchair scooter drone" speed="13.89" length="23.10" width="3.00" shape="327.77,216.62 328.40,223.21 329.40,228.57 331.49,233.45 335.39,238.61" />
    </edge>
    <edge id=":1282870801_7" function="internal">
        <lane id=":1282870801_7_0" index="0" disallow="tram rail_urban rail rail_electric rail_fast ship container cable_car subway aircraft wheelchair scooter drone" speed="7.47" length="5.86" shape="327.77,216.62 327.59,222.48" />
    </edge>
    <edge id=":1282870801_8" function="internal">
        <lane id=":1282870801_8_0" index="0" disallow="tram rail_urban rail rail_electric rail_fast ship container cable_car subway aircraft wheelchair scooter drone" speed="3.66" length="1.46" shape="327.77,216.62 327.25,217.98" />
    </edge>
    <edge id=":1282870801_10" function="internal">
        <lane id=":1282870801_10_0" index="0" disallow="tram rail_urban rail rail_electric rail_fast ship container cable_car subway aircraft wheelchair scooter drone" speed="7.47" length="13.98" shape="327.59,222.48 327.59,222.67 325.65,225.40 321.96,224.81 316.51,220.91" />
    </edge>
    <edge id=":1282870801_11" function="internal">
        <lane id=":1282870801_11_0" index="0" disallow="tram rail_urban rail rail_electric rail_fast ship container cable_car subway aircraft wheelchair scooter drone" speed="3.66" length="3.26" shape="327.25,217.98 326.55,218.55 325.67,218.34 324.62,217.34" />
    </edge>
    <edge id=":1311770050_0" function="internal">
        <lane id=":1311770050_0_0" index="0" disallow="tram rail_urban rail rail_electric rail_fast ship container cable_car subway aircraft wheelchair scooter drone" speed="13.89" length="15.29" shape="680.45,710.64 676.86,711.76 674.71,713.28 672.90,715.42 670.35,718.39" />
        <lane id=":1311770050_0_1" index="1" disallow="tram rail_urban rail rail_electric rail_fast ship container cable_car subway aircraft wheelchair scooter drone" speed="13.89" length="15.29" shape="679.41,707.59 675.38,708.83 672.94,710.50 670.89,712.87 668.03,716.19" />
        <lane id=":1311770050_0_2" index="2" disallow="tram rail_urban rail rail_electric rail_fast ship container cable_car subway aircraft wheelchair scooter drone" speed="13.89" length="15.29" shape="678.16,704.58 673.75,705.94 671.08,707.77 668.84,710.36 665.70,713.99" />
        <lane id=":1311770050_0_3" index="3" disallow="tram rail_urban rail rail_electric rail_fast ship container cable_car subway aircraft wheelchair scooter drone" speed="13.89" length="15.29" shape="676.73,701.61 671.99,703.08 669.14,705.07 666.75,707.87 663.38,711.79" />
    </edge>
    <edge id=":1311770050_4" function="internal">
        <lane id=":1311770050_4_0" index="0" disallow="tram rail_urban rail rail_electric rail_fast ship container cable_car subway aircraft wheelchair scooter drone" speed="13.89" length="12.80" shape="658.74,707.39 661.12,704.69 662.47,702.61 663.39,700.26 664.50,696.81" />
        <lane id=":1311770050_4_1" index="1" disallow="tram rail_urban rail rail_electric rail_fast ship container cable_car subway aircraft wheelchair scooter drone" speed="13.89" length="12.80" shape="661.06,709.59 663.68,706.65 665.19,704.38 666.23,701.84 667.45,698.07" />
    </edge>
    <edge id=":1311770050_6" function="internal">
        <lane id=":1311770050_6_0" index="0" disallow="tram rail_urban rail rail_electric rail_fast ship container cable_car subway aircraft wheelchair scooter drone" speed="3.65" length="1.44" shape="661.06,709.59 662.47,709.27" />
    </edge>
    <edge id=":1311770050_7" function="internal">
        <lane id=":1311770050_7_0" index="0" disallow="tram rail_urban rail rail_electric rail_fast ship container cable_car subway aircraft wheelchair scooter drone" speed="3.65" length="3.23" shape="662.47,709.27 663.32,709.53 663.63,710.37 663.38,711.79" />
    </edge>
    <edge id=":1362899977_0" function="internal">
        <lane id=":1362899977_0_0" index="0" disallow="tram rail_urban rail rail_electric rail_fast ship container cable_car subway aircraft wheelchair scooter drone" speed="6.79" length="8.41" shape="854.52,528.02 852.51,527.43 850.62,527.62 848.85,528.58 847.20,530.32" />
    </edge>
    <edge id=":1362899977_1" function="internal">
        <lane id=":1362899977_1_0" index="0" disallow="tram rail_urban rail rail_electric rail_fast ship container cable_car subway aircraft wheelchair scooter drone" speed="13.89" length="9.34" shape="854.52,528.02 846.15,524.19" />
        <lane id=":1362899977_1_1" index="1" disallow="tram rail_urban rail rail_electric rail_fast ship container cable_car subway aircraft wheelchair scooter drone" speed="13.89" length="9.34" shape="855.89,525.13 847.46,521.27" />
        <lane id=":1362899977_1_2" index="2" disallow="tram rail_urban rail rail_electric rail_fast ship container cable_car subway aircraft wheelchair scooter drone" speed="13.89" length="9.34" shape="857.26,522.24 848.77,518.35" />